
     RDKit          3D

 57 61  0  0  0  0  0  0  0  0999 V2000
   -7.0244    3.6305  -22.4811 C   0  0  0  0  0  0  0  0  0  0  0  0
   -7.7859    2.6746  -23.2593 N   0  0  0  0  0  0  0  0  0  0  0  0
   -7.4894    2.5129  -24.5668 C   0  0  0  0  0  0  0  0  0  0  0  0
   -6.7206    3.2409  -25.1812 O   0  0  0  0  0  0  0  0  0  0  0  0
   -8.1592    1.3583  -25.3226 C   0  0  0  0  0  0  0  0  0  0  0  0
   -8.9818    0.4548  -24.5603 N   0  0  0  0  0  0  0  0  0  0  0  0
   -8.5029   -0.8879  -24.2849 C   0  0  0  0  0  0  0  0  0  0  0  0
   -9.0726   -1.4195  -22.9457 C   0  0  2  0  0  0  0  0  0  0  0  0
   -8.4738   -0.5707  -21.7893 C   0  0  0  0  0  0  0  0  0  0  0  0
   -8.7658    0.5807  -21.5193 O   0  0  0  0  0  0  0  0  0  0  0  0
   -7.5108   -1.3087  -21.1441 N   0  0  0  0  0  0  0  0  0  0  0  0
   -6.6591   -0.7895  -20.1250 C   0  0  0  0  0  0  0  0  0  0  0  0
   -6.8836   -1.1543  -18.8196 C   0  0  0  0  0  0  0  0  0  0  0  0
   -6.1096   -0.7787  -17.7712 N   0  0  0  0  0  0  0  0  0  0  0  0
   -5.0838   -0.0036  -18.0206 C   0  0  0  0  0  0  0  0  0  0  0  0
   -4.7399    0.4636  -19.3210 C   0  0  0  0  0  0  0  0  0  0  0  0
   -3.6576    1.3593  -19.5291 C   0  0  0  0  0  0  0  0  0  0  0  0
   -3.3267    1.7594  -20.7923 C   0  0  0  0  0  0  0  0  0  0  0  0
   -4.0549    1.2870  -21.9059 C   0  0  0  0  0  0  0  0  0  0  0  0
   -5.1370    0.4582  -21.7273 C   0  0  0  0  0  0  0  0  0  0  0  0
   -5.5272    0.0425  -20.4219 C   0  0  0  0  0  0  0  0  0  0  0  0
   -7.2280   -2.5611  -21.8217 C   0  0  0  0  0  0  0  0  0  0  0  0
   -8.5381   -2.8254  -22.5667 C   0  0  2  0  0  0  0  0  0  0  0  0
   -8.3945   -3.8472  -23.6921 C   0  0  0  0  0  0  0  0  0  0  0  0
   -9.6251   -4.2161  -24.2806 O   0  0  0  0  0  0  0  0  0  0  0  0
  -10.5812   -1.3118  -23.0506 C   0  0  0  0  0  0  0  0  0  0  0  0
  -11.4734   -2.2789  -22.5719 C   0  0  0  0  0  0  0  0  0  0  0  0
  -12.8281   -1.9987  -22.5248 C   0  0  0  0  0  0  0  0  0  0  0  0
  -13.8835   -3.1425  -21.7394 Cl  0  0  0  0  0  0  0  0  0  0  0  0
  -13.3607   -0.8131  -23.0324 C   0  0  0  0  0  0  0  0  0  0  0  0
  -12.4951    0.1027  -23.5943 C   0  0  0  0  0  0  0  0  0  0  0  0
  -11.1269   -0.1525  -23.6191 C   0  0  0  0  0  0  0  0  0  0  0  0
  -10.2465    0.8710  -24.2535 C   0  0  0  0  0  0  0  0  0  0  0  0
  -10.6298    2.0138  -24.4728 O   0  0  0  0  0  0  0  0  0  0  0  0
   -7.1485    3.3879  -21.4203 H   0  0  0  0  0  0  0  0  0  0  0  0
   -5.9645    3.5542  -22.7463 H   0  0  0  0  0  0  0  0  0  0  0  0
   -7.3269    4.6733  -22.6491 H   0  0  0  0  0  0  0  0  0  0  0  0
   -8.2934    1.9611  -22.7353 H   0  0  0  0  0  0  0  0  0  0  0  0
   -8.7476    1.8031  -26.1302 H   0  0  0  0  0  0  0  0  0  0  0  0
   -7.3482    0.7968  -25.7914 H   0  0  0  0  0  0  0  0  0  0  0  0
   -8.7905   -1.5673  -25.0996 H   0  0  0  0  0  0  0  0  0  0  0  0
   -7.4090   -0.8622  -24.2362 H   0  0  0  0  0  0  0  0  0  0  0  0
   -7.7420   -1.7787  -18.5745 H   0  0  0  0  0  0  0  0  0  0  0  0
   -4.4719    0.3154  -17.1754 H   0  0  0  0  0  0  0  0  0  0  0  0
   -3.1064    1.7144  -18.6622 H   0  0  0  0  0  0  0  0  0  0  0  0
   -2.5030    2.4471  -20.9503 H   0  0  0  0  0  0  0  0  0  0  0  0
   -3.7825    1.6114  -22.9071 H   0  0  0  0  0  0  0  0  0  0  0  0
   -5.7040    0.1267  -22.5925 H   0  0  0  0  0  0  0  0  0  0  0  0
   -6.9820   -3.3291  -21.0827 H   0  0  0  0  0  0  0  0  0  0  0  0
   -6.3774   -2.4672  -22.5217 H   0  0  0  0  0  0  0  0  0  0  0  0
   -9.2254   -3.2256  -21.8156 H   0  0  0  0  0  0  0  0  0  0  0  0
   -7.6839   -3.4719  -24.4464 H   0  0  0  0  0  0  0  0  0  0  0  0
   -7.9683   -4.7756  -23.2970 H   0  0  0  0  0  0  0  0  0  0  0  0
  -10.0504   -3.4282  -24.6428 H   0  0  0  0  0  0  0  0  0  0  0  0
  -11.1423   -3.2510  -22.2168 H   0  0  0  0  0  0  0  0  0  0  0  0
  -14.4272   -0.6268  -22.9678 H   0  0  0  0  0  0  0  0  0  0  0  0
  -12.8579    1.0427  -23.9957 H   0  0  0  0  0  0  0  0  0  0  0  0
  1  2  1  0
  2  3  1  0
  3  4  2  0
  3  5  1  0
  5  6  1  0
  6  7  1  0
  8  7  1  6
  8  9  1  0
  9 10  2  0
  9 11  1  0
 11 12  1  0
 12 13  2  0
 13 14  1  0
 14 15  2  0
 15 16  1  0
 16 17  2  0
 17 18  1  0
 18 19  2  0
 19 20  1  0
 20 21  2  0
 11 22  1  0
 22 23  1  0
 23 24  1  0
 24 25  1  0
  8 26  1  0
 26 27  2  0
 27 28  1  0
 28 29  1  0
 28 30  2  0
 30 31  1  0
 31 32  2  0
 32 33  1  0
 33 34  2  0
 33  6  1  0
 23  8  1  0
 32 26  1  0
 21 12  1  0
 21 16  1  0
  1 35  1  0
  1 36  1  0
  1 37  1  0
  2 38  1  0
  5 39  1  0
  5 40  1  0
  7 41  1  0
  7 42  1  0
 13 43  1  0
 15 44  1  0
 17 45  1  0
 18 46  1  0
 19 47  1  0
 20 48  1  0
 22 49  1  0
 22 50  1  0
 23 51  1  1
 24 52  1  0
 24 53  1  0
 25 54  1  0
 27 55  1  0
 30 56  1  0
 31 57  1  0
M  END
