
     RDKit          3D

 49 50  0  0  0  0  0  0  0  0999 V2000
   -8.7601   -4.4266  -17.2097 C   0  0  0  0  0  0  0  0  0  0  0  0
   -7.4141   -4.1015  -17.7172 N   0  0  0  0  0  0  0  0  0  0  0  0
   -6.9595   -2.6562  -18.3151 S   0  0  0  0  0  0  0  0  0  0  0  0
   -8.1051   -1.7775  -18.4077 O   0  0  0  0  0  0  0  0  0  0  0  0
   -5.7409   -2.1988  -17.6848 O   0  0  0  0  0  0  0  0  0  0  0  0
   -6.5602   -3.0879  -19.8355 O   0  0  0  0  0  0  0  0  0  0  0  0
   -6.0140   -1.9758  -20.5752 C   0  0  0  0  0  0  0  0  0  0  0  0
   -6.8099   -1.7338  -21.8459 C   0  0  0  0  0  0  0  0  0  0  0  0
   -6.2735   -1.2507  -22.8315 O   0  0  0  0  0  0  0  0  0  0  0  0
   -8.1341   -2.0379  -21.7931 N   0  0  0  0  0  0  0  0  0  0  0  0
   -8.8788   -1.9706  -23.0473 C   0  0  1  0  0  0  0  0  0  0  0  0
   -8.7437   -3.2351  -23.8950 C   0  0  0  0  0  0  0  0  0  0  0  0
  -10.3108   -1.5099  -22.8686 C   0  0  0  0  0  0  0  0  0  0  0  0
  -11.4101   -2.3653  -22.8260 C   0  0  0  0  0  0  0  0  0  0  0  0
  -12.6917   -1.8218  -22.7501 C   0  0  0  0  0  0  0  0  0  0  0  0
  -14.0553   -2.8981  -22.6505 Cl  0  0  0  0  0  0  0  0  0  0  0  0
  -12.9167   -0.4529  -22.8096 C   0  0  0  0  0  0  0  0  0  0  0  0
  -11.8219    0.4080  -22.9408 C   0  0  0  0  0  0  0  0  0  0  0  0
  -11.9768    1.8478  -23.3042 C   0  0  0  0  0  0  0  0  0  0  0  0
  -12.9108    2.7179  -22.7242 C   0  0  0  0  0  0  0  0  0  0  0  0
  -13.0896    4.0061  -23.2339 C   0  0  0  0  0  0  0  0  0  0  0  0
  -12.3519    4.4076  -24.3506 C   0  0  0  0  0  0  0  0  0  0  0  0
  -12.7334    5.9134  -25.2105 S   0  0  0  0  0  0  0  0  0  0  0  0
  -11.2128    6.3655  -25.7446 N   0  0  0  0  0  0  0  0  0  0  0  0
  -13.2600    6.8571  -24.2408 O   0  0  0  0  0  0  0  0  0  0  0  0
  -13.4770    5.6509  -26.4320 O   0  0  0  0  0  0  0  0  0  0  0  0
  -11.3596    3.5885  -24.8843 C   0  0  0  0  0  0  0  0  0  0  0  0
  -11.1827    2.3265  -24.3559 C   0  0  0  0  0  0  0  0  0  0  0  0
  -10.5374   -0.1362  -22.9063 C   0  0  0  0  0  0  0  0  0  0  0  0
   -8.6909   -5.0576  -16.3166 H   0  0  0  0  0  0  0  0  0  0  0  0
   -9.2794   -3.4900  -17.0203 H   0  0  0  0  0  0  0  0  0  0  0  0
   -9.3494   -5.0234  -17.9063 H   0  0  0  0  0  0  0  0  0  0  0  0
   -6.8376   -4.8471  -18.0792 H   0  0  0  0  0  0  0  0  0  0  0  0
   -4.9863   -2.2172  -20.8488 H   0  0  0  0  0  0  0  0  0  0  0  0
   -6.0098   -1.0664  -19.9637 H   0  0  0  0  0  0  0  0  0  0  0  0
   -8.5224   -2.5190  -20.9894 H   0  0  0  0  0  0  0  0  0  0  0  0
   -8.3747   -1.1748  -23.6060 H   0  0  0  0  0  0  0  0  0  0  0  0
   -7.6820   -3.4072  -24.1034 H   0  0  0  0  0  0  0  0  0  0  0  0
   -9.2601   -3.0760  -24.8500 H   0  0  0  0  0  0  0  0  0  0  0  0
   -9.1558   -4.1265  -23.4055 H   0  0  0  0  0  0  0  0  0  0  0  0
  -11.2881   -3.4442  -22.8537 H   0  0  0  0  0  0  0  0  0  0  0  0
  -13.9348   -0.0671  -22.7947 H   0  0  0  0  0  0  0  0  0  0  0  0
  -13.4862    2.3860  -21.8608 H   0  0  0  0  0  0  0  0  0  0  0  0
  -13.7967    4.6957  -22.7763 H   0  0  0  0  0  0  0  0  0  0  0  0
  -11.2585    6.6003  -26.7282 H   0  0  0  0  0  0  0  0  0  0  0  0
  -10.8131    7.1231  -25.2066 H   0  0  0  0  0  0  0  0  0  0  0  0
  -10.7150    3.9503  -25.6820 H   0  0  0  0  0  0  0  0  0  0  0  0
  -10.4248    1.6792  -24.7890 H   0  0  0  0  0  0  0  0  0  0  0  0
   -9.6841    0.5398  -22.9338 H   0  0  0  0  0  0  0  0  0  0  0  0
  1  2  1  0
  2  3  1  0
  3  4  2  0
  3  5  2  0
  3  6  1  0
  6  7  1  0
  7  8  1  0
  8  9  2  0
  8 10  1  0
 10 11  1  0
 11 12  1  0
 11 13  1  0
 13 14  2  0
 14 15  1  0
 15 16  1  0
 15 17  2  0
 17 18  1  0
 18 19  1  0
 19 20  2  0
 20 21  1  0
 21 22  2  0
 22 23  1  0
 23 24  1  0
 23 25  2  0
 23 26  2  0
 22 27  1  0
 27 28  2  0
 18 29  2  0
 29 13  1  0
 28 19  1  0
  1 30  1  0
  1 31  1  0
  1 32  1  0
  2 33  1  0
  7 34  1  0
  7 35  1  0
 10 36  1  0
 11 37  1  6
 12 38  1  0
 12 39  1  0
 12 40  1  0
 14 41  1  0
 17 42  1  0
 20 43  1  0
 21 44  1  0
 24 45  1  0
 24 46  1  0
 27 47  1  0
 28 48  1  0
 29 49  1  0
M  END
