LIG(A-306)
     RDKit          3D

 34 38  0  0  0  0  0  0  0  0999 V2000
   13.7843    7.8157   22.8460 O   0  0  0  0  0  0  0  0  0  0  0  0
   13.0360    7.1819   23.5864 C   0  0  0  0  0  0  0  0  0  0  0  0
   12.1420    7.9917   24.4585 C   0  0  0  0  0  0  0  0  0  0  0  0
   10.8073    7.6906   24.5001 O   0  0  0  0  0  0  0  0  0  0  0  0
   10.2216    8.6502   25.2933 C   0  0  0  0  0  0  0  0  0  0  0  0
   11.1321    9.5131   25.7331 C   0  0  0  0  0  0  0  0  0  0  0  0
   12.3875    9.0967   25.1998 C   0  0  0  0  0  0  0  0  0  0  0  0
   13.0217    5.8368   23.6177 N   0  0  0  0  0  0  0  0  0  0  0  0
   13.7220    5.0822   22.5656 C   0  0  0  0  0  0  0  0  0  0  0  0
   12.9249    3.8610   22.1575 C   0  0  0  0  0  0  0  0  0  0  0  0
   12.4856    5.0477   24.7402 C   0  0  0  0  0  0  0  0  0  0  0  0
   11.7633    3.8041   24.2391 C   0  0  0  0  0  0  0  0  0  0  0  0
   12.6302    3.0463   23.3355 N   0  0  0  0  0  0  0  0  0  0  0  0
   12.3260    1.7070   23.0911 C   0  0  0  0  0  0  0  0  0  0  0  0
   13.3396    0.7934   22.7797 C   0  0  0  0  0  0  0  0  0  0  0  0
   12.9986   -0.4899   22.3932 C   0  0  0  0  0  0  0  0  0  0  0  0
   14.2598   -1.5817   21.8980 Cl  0  0  0  0  0  0  0  0  0  0  0  0
   10.9926    1.2781   23.0496 C   0  0  0  0  0  0  0  0  0  0  0  0
   10.6715   -0.0168   22.6491 C   0  0  0  0  0  0  0  0  0  0  0  0
   11.6867   -0.9078   22.3250 C   0  0  0  0  0  0  0  0  0  0  0  0
    9.2241   -0.4422   22.5328 C   0  0  0  0  0  0  0  0  0  0  0  0
    8.5093    0.2643   21.3958 C   0  0  0  0  0  0  0  0  0  0  0  0
    8.7649    1.4271   21.0936 O   0  0  0  0  0  0  0  0  0  0  0  0
    7.6873   -0.5075   20.6717 N   0  0  0  0  0  0  0  0  0  0  0  0
    6.6300   -0.1475   19.8218 C   0  0  0  0  0  0  0  0  0  0  0  0
    5.6266    0.7925   20.2258 C   0  0  0  0  0  0  0  0  0  0  0  0
    5.2272    0.9897   21.5742 C   0  0  0  0  0  0  0  0  0  0  0  0
    4.1731    1.8048   21.8874 C   0  0  0  0  0  0  0  0  0  0  0  0
    3.4686    2.4661   20.8903 C   0  0  0  0  0  0  0  0  0  0  0  0
    3.8151    2.3162   19.5778 C   0  0  0  0  0  0  0  0  0  0  0  0
    4.8960    1.4742   19.2082 C   0  0  0  0  0  0  0  0  0  0  0  0
    5.2319    1.2047   17.8650 C   0  0  0  0  0  0  0  0  0  0  0  0
    6.1537    0.3358   17.4892 N   0  0  0  0  0  0  0  0  0  0  0  0
    6.7965   -0.3339   18.4505 C   0  0  0  0  0  0  0  0  0  0  0  0
  1  2  2  0
  2  3  1  0
  2  8  1  0
  3  4  1  0
  3  7  2  0
  4  5  1  0
  5  6  2  0
  6  7  1  0
  8  9  1  0
  8 11  1  0
  9 10  1  0
 10 13  1  0
 11 12  1  0
 12 13  1  0
 13 14  1  0
 14 15  2  0
 14 18  1  0
 15 16  1  0
 16 17  1  0
 16 20  2  0
 18 19  2  0
 19 20  1  0
 19 21  1  0
 21 22  1  0
 22 23  2  0
 22 24  1  0
 24 25  1  0
 25 26  1  0
 25 34  2  0
 26 27  2  0
 26 31  1  0
 27 28  1  0
 28 29  2  0
 29 30  1  0
 30 31  2  0
 31 32  1  0
 32 33  2  0
 33 34  1  0
M  END
$$$$
