
     RDKit          3D

 51 54  0  0  0  0  0  0  0  0999 V2000
   13.0163    0.7787   23.9307 C   0  0  0  0  0  0  0  0  0  0  0  0
   12.6768   -0.4423   23.3184 O   0  0  0  0  0  0  0  0  0  0  0  0
   11.3726   -0.7974   23.2141 C   0  0  0  0  0  0  0  0  0  0  0  0
   11.1492   -2.0250   22.5865 C   0  0  0  0  0  0  0  0  0  0  0  0
    9.8600   -2.4899   22.4114 C   0  0  0  0  0  0  0  0  0  0  0  0
    8.7679   -1.7305   22.8395 C   0  0  0  0  0  0  0  0  0  0  0  0
    7.4433   -2.2288   22.6382 N   0  0  0  0  0  0  0  0  0  0  0  0
    7.0231   -3.4159   23.3886 C   0  0  0  0  0  0  0  0  0  0  0  0
    6.6497   -3.0957   24.8274 C   0  0  0  0  0  0  0  0  0  0  0  0
    7.6509   -2.9953   25.7893 C   0  0  0  0  0  0  0  0  0  0  0  0
    7.3365   -2.6901   27.1052 C   0  0  0  0  0  0  0  0  0  0  0  0
    6.0261   -2.4165   27.4797 C   0  0  0  0  0  0  0  0  0  0  0  0
    5.0264   -2.5333   26.5194 C   0  0  0  0  0  0  0  0  0  0  0  0
    3.3648   -2.2447   26.9751 Cl  0  0  0  0  0  0  0  0  0  0  0  0
    5.3231   -2.8842   25.2065 C   0  0  0  0  0  0  0  0  0  0  0  0
    6.4403   -1.5175   22.0114 C   0  0  0  0  0  0  0  0  0  0  0  0
    5.2679   -1.7992   22.1845 O   0  0  0  0  0  0  0  0  0  0  0  0
    6.8699   -0.4031   21.0515 C   0  0  0  0  0  0  0  0  0  0  0  0
    5.8698   -0.1865   19.9500 C   0  0  0  0  0  0  0  0  0  0  0  0
    6.0452   -0.8080   18.7448 C   0  0  0  0  0  0  0  0  0  0  0  0
    5.2400   -0.6676   17.6609 N   0  0  0  0  0  0  0  0  0  0  0  0
    4.1783    0.0856   17.8076 C   0  0  0  0  0  0  0  0  0  0  0  0
    3.8235    0.7350   19.0195 C   0  0  0  0  0  0  0  0  0  0  0  0
    2.6367    1.5006   19.1438 C   0  0  0  0  0  0  0  0  0  0  0  0
    2.3075    2.0955   20.3292 C   0  0  0  0  0  0  0  0  0  0  0  0
    3.1860    1.9963   21.4288 C   0  0  0  0  0  0  0  0  0  0  0  0
    4.3527    1.2796   21.3294 C   0  0  0  0  0  0  0  0  0  0  0  0
    4.6949    0.6080   20.1250 C   0  0  0  0  0  0  0  0  0  0  0  0
    9.0031   -0.5186   23.4822 C   0  0  0  0  0  0  0  0  0  0  0  0
   10.2978   -0.0443   23.6713 C   0  0  0  0  0  0  0  0  0  0  0  0
   12.5874    1.6443   23.4059 H   0  0  0  0  0  0  0  0  0  0  0  0
   14.1039    0.7985   23.8543 H   0  0  0  0  0  0  0  0  0  0  0  0
   12.6979    0.8087   24.9823 H   0  0  0  0  0  0  0  0  0  0  0  0
   12.0155   -2.5908   22.2514 H   0  0  0  0  0  0  0  0  0  0  0  0
    9.6869   -3.4497   21.9305 H   0  0  0  0  0  0  0  0  0  0  0  0
    6.1667   -3.8595   22.8722 H   0  0  0  0  0  0  0  0  0  0  0  0
    7.8617   -4.1238   23.3764 H   0  0  0  0  0  0  0  0  0  0  0  0
    8.6927   -3.1513   25.5169 H   0  0  0  0  0  0  0  0  0  0  0  0
    8.1312   -2.7164   27.8325 H   0  0  0  0  0  0  0  0  0  0  0  0
    5.7801   -2.1289   28.4980 H   0  0  0  0  0  0  0  0  0  0  0  0
    4.5202   -2.9688   24.4759 H   0  0  0  0  0  0  0  0  0  0  0  0
    7.0297    0.5189   21.6269 H   0  0  0  0  0  0  0  0  0  0  0  0
    7.8509   -0.6842   20.6510 H   0  0  0  0  0  0  0  0  0  0  0  0
    6.8967   -1.4737   18.5891 H   0  0  0  0  0  0  0  0  0  0  0  0
    3.5211    0.1848   16.9412 H   0  0  0  0  0  0  0  0  0  0  0  0
    2.0096    1.6169   18.2697 H   0  0  0  0  0  0  0  0  0  0  0  0
    1.3815    2.6596   20.4212 H   0  0  0  0  0  0  0  0  0  0  0  0
    2.9380    2.5063   22.3568 H   0  0  0  0  0  0  0  0  0  0  0  0
    5.0227    1.2055   22.1800 H   0  0  0  0  0  0  0  0  0  0  0  0
    8.1617    0.0551   23.8672 H   0  0  0  0  0  0  0  0  0  0  0  0
   10.4577    0.9091   24.1647 H   0  0  0  0  0  0  0  0  0  0  0  0
  1  2  1  0
  2  3  1  0
  3  4  2  0
  4  5  1  0
  5  6  2  0
  6  7  1  0
  7  8  1  0
  8  9  1  0
  9 10  2  0
 10 11  1  0
 11 12  2  0
 12 13  1  0
 13 14  1  0
 13 15  2  0
  7 16  1  0
 16 17  2  0
 16 18  1  0
 18 19  1  0
 19 20  2  0
 20 21  1  0
 21 22  2  0
 22 23  1  0
 23 24  2  0
 24 25  1  0
 25 26  2  0
 26 27  1  0
 27 28  2  0
  6 29  1  0
 29 30  2  0
 30  3  1  0
 15  9  1  0
 28 19  1  0
 28 23  1  0
  1 31  1  0
  1 32  1  0
  1 33  1  0
  4 34  1  0
  5 35  1  0
  8 36  1  0
  8 37  1  0
 10 38  1  0
 11 39  1  0
 12 40  1  0
 15 41  1  0
 18 42  1  0
 18 43  1  0
 20 44  1  0
 22 45  1  0
 24 46  1  0
 25 47  1  0
 26 48  1  0
 27 49  1  0
 29 50  1  0
 30 51  1  0
M  END
$$$$
