
     RDKit          3D

 76 82  0  0  0  0  0  0  0  0999 V2000
  -10.5267    2.0649  -24.2218 O   0  0  0  0  0  0  0  0  0  0  0  0
  -10.1736    0.8831  -24.1377 C   0  0  0  0  0  0  0  0  0  0  0  0
  -11.0925   -0.1513  -23.5697 C   0  0  0  0  0  0  0  0  0  0  0  0
  -12.4618    0.1010  -23.5670 C   0  0  0  0  0  0  0  0  0  0  0  0
  -13.3368   -0.8396  -23.0622 C   0  0  0  0  0  0  0  0  0  0  0  0
  -12.8217   -2.0385  -22.5706 C   0  0  0  0  0  0  0  0  0  0  0  0
  -13.9090   -3.1930  -21.8510 Cl  0  0  0  0  0  0  0  0  0  0  0  0
  -11.4661   -2.3184  -22.5990 C   0  0  0  0  0  0  0  0  0  0  0  0
  -10.5685   -1.3364  -23.0419 C   0  0  0  0  0  0  0  0  0  0  0  0
   -9.0587   -1.4469  -22.9369 C   0  0  1  0  0  0  0  0  0  0  0  0
   -8.4879   -0.9071  -24.2821 C   0  0  0  0  0  0  0  0  0  0  0  0
   -8.9522    0.4526  -24.5416 N   0  0  0  0  0  0  0  0  0  0  0  0
   -8.1243    1.3349  -25.3543 C   0  0  0  0  0  0  0  0  0  0  0  0
   -7.4230    2.4516  -24.5760 C   0  0  0  0  0  0  0  0  0  0  0  0
   -8.3361    3.5859  -24.2054 N   0  0  0  0  0  0  0  0  0  0  0  0
   -8.9856    4.3485  -25.3342 C   0  0  0  0  0  0  0  0  0  0  0  0
   -8.0257    5.2918  -26.0348 C   0  0  0  0  0  0  0  0  0  0  0  0
   -7.4622    6.2093  -25.1179 O   0  0  0  0  0  0  0  0  0  0  0  0
   -6.7667    5.5285  -24.0892 C   0  0  0  0  0  0  0  0  0  0  0  0
   -7.6805    4.5866  -23.3043 C   0  0  0  0  0  0  0  0  0  0  0  0
   -8.4558   -0.5794  -21.7948 C   0  0  0  0  0  0  0  0  0  0  0  0
   -8.7273    0.5667  -21.5181 O   0  0  0  0  0  0  0  0  0  0  0  0
   -7.4838   -1.3257  -21.1578 N   0  0  0  0  0  0  0  0  0  0  0  0
   -6.6526   -0.8076  -20.1293 C   0  0  0  0  0  0  0  0  0  0  0  0
   -6.8683   -1.1790  -18.8233 C   0  0  0  0  0  0  0  0  0  0  0  0
   -6.0881   -0.8080  -17.7792 N   0  0  0  0  0  0  0  0  0  0  0  0
   -5.0604   -0.0371  -18.0333 C   0  0  0  0  0  0  0  0  0  0  0  0
   -4.7375    0.4457  -19.3328 C   0  0  0  0  0  0  0  0  0  0  0  0
   -3.6535    1.3390  -19.5388 C   0  0  0  0  0  0  0  0  0  0  0  0
   -3.3411    1.7643  -20.7992 C   0  0  0  0  0  0  0  0  0  0  0  0
   -4.0847    1.3119  -21.9111 C   0  0  0  0  0  0  0  0  0  0  0  0
   -5.1609    0.4737  -21.7330 C   0  0  0  0  0  0  0  0  0  0  0  0
   -5.5292    0.0317  -20.4283 C   0  0  0  0  0  0  0  0  0  0  0  0
   -7.2083   -2.5882  -21.8175 C   0  0  0  0  0  0  0  0  0  0  0  0
   -8.5368   -2.8472  -22.5349 C   0  0  2  0  0  0  0  0  0  0  0  0
   -8.4916   -3.8823  -23.6662 C   0  0  0  0  0  0  0  0  0  0  0  0
   -8.2307   -5.2302  -23.2059 N   0  0  0  0  0  0  0  0  0  0  0  0
   -6.9680   -5.7267  -23.1377 C   0  0  0  0  0  0  0  0  0  0  0  0
   -5.9861   -5.0173  -23.7277 N   0  0  0  0  0  0  0  0  0  0  0  0
   -4.7577   -5.5236  -23.6430 C   0  0  0  0  0  0  0  0  0  0  0  0
   -4.4736   -6.7020  -22.9680 C   0  0  0  0  0  0  0  0  0  0  0  0
   -5.5719   -7.3524  -22.4042 C   0  0  0  0  0  0  0  0  0  0  0  0
   -6.8136   -6.9021  -22.4942 N   0  0  0  0  0  0  0  0  0  0  0  0
  -12.8175    1.0426  -23.9699 H   0  0  0  0  0  0  0  0  0  0  0  0
  -14.4044   -0.6527  -23.0315 H   0  0  0  0  0  0  0  0  0  0  0  0
  -11.1332   -3.2907  -22.2516 H   0  0  0  0  0  0  0  0  0  0  0  0
   -7.3917   -0.8839  -24.2561 H   0  0  0  0  0  0  0  0  0  0  0  0
   -8.7958   -1.5626  -25.1076 H   0  0  0  0  0  0  0  0  0  0  0  0
   -7.3648    0.7145  -25.8378 H   0  0  0  0  0  0  0  0  0  0  0  0
   -8.7350    1.7634  -26.1555 H   0  0  0  0  0  0  0  0  0  0  0  0
   -7.0191    2.0369  -23.6403 H   0  0  0  0  0  0  0  0  0  0  0  0
   -6.5727    2.8168  -25.1624 H   0  0  0  0  0  0  0  0  0  0  0  0
   -9.1368    3.1493  -23.7191 H   0  0  0  0  0  0  0  0  0  0  0  0
   -9.4429    3.6536  -26.0381 H   0  0  0  0  0  0  0  0  0  0  0  0
   -9.7950    4.9309  -24.8868 H   0  0  0  0  0  0  0  0  0  0  0  0
   -7.2394    4.7218  -26.5550 H   0  0  0  0  0  0  0  0  0  0  0  0
   -8.5717    5.8788  -26.7803 H   0  0  0  0  0  0  0  0  0  0  0  0
   -6.3575    6.2939  -23.4240 H   0  0  0  0  0  0  0  0  0  0  0  0
   -5.9240    4.9609  -24.5148 H   0  0  0  0  0  0  0  0  0  0  0  0
   -8.4660    5.1625  -22.8101 H   0  0  0  0  0  0  0  0  0  0  0  0
   -7.1122    4.0564  -22.5336 H   0  0  0  0  0  0  0  0  0  0  0  0
   -7.7128   -1.8204  -18.5772 H   0  0  0  0  0  0  0  0  0  0  0  0
   -4.4291    0.2593  -17.1949 H   0  0  0  0  0  0  0  0  0  0  0  0
   -3.0981    1.6844  -18.6706 H   0  0  0  0  0  0  0  0  0  0  0  0
   -2.5184    2.4559  -20.9531 H   0  0  0  0  0  0  0  0  0  0  0  0
   -3.8071    1.6343  -22.9107 H   0  0  0  0  0  0  0  0  0  0  0  0
   -5.7418    0.1596  -22.5963 H   0  0  0  0  0  0  0  0  0  0  0  0
   -6.3611   -2.5234  -22.5222 H   0  0  0  0  0  0  0  0  0  0  0  0
   -6.9660   -3.3496  -21.0747 H   0  0  0  0  0  0  0  0  0  0  0  0
   -9.1999   -3.2018  -21.7334 H   0  0  0  0  0  0  0  0  0  0  0  0
   -9.4351   -3.8464  -24.2313 H   0  0  0  0  0  0  0  0  0  0  0  0
   -7.6804   -3.6253  -24.3574 H   0  0  0  0  0  0  0  0  0  0  0  0
   -8.9285   -5.7485  -22.6803 H   0  0  0  0  0  0  0  0  0  0  0  0
   -3.9861   -4.9345  -24.1450 H   0  0  0  0  0  0  0  0  0  0  0  0
   -3.4599   -7.0823  -22.8929 H   0  0  0  0  0  0  0  0  0  0  0  0
   -5.4486   -8.2894  -21.8596 H   0  0  0  0  0  0  0  0  0  0  0  0
  1  2  2  0
  2  3  1  0
  3  4  2  0
  4  5  1  0
  5  6  2  0
  6  7  1  0
  6  8  1  0
  8  9  2  0
  9 10  1  0
 10 11  1  6
 11 12  1  0
 12 13  1  0
 13 14  1  0
 14 15  1  0
 15 16  1  0
 16 17  1  0
 17 18  1  0
 18 19  1  0
 19 20  1  0
 10 21  1  0
 21 22  2  0
 21 23  1  0
 23 24  1  0
 24 25  2  0
 25 26  1  0
 26 27  2  0
 27 28  1  0
 28 29  2  0
 29 30  1  0
 30 31  2  0
 31 32  1  0
 32 33  2  0
 23 34  1  0
 34 35  1  0
 35 36  1  0
 36 37  1  0
 37 38  1  0
 38 39  2  0
 39 40  1  0
 40 41  2  0
 41 42  1  0
 42 43  2  0
 12  2  1  0
 20 15  1  0
 33 24  1  0
 43 38  1  0
  9  3  1  0
 35 10  1  0
 33 28  1  0
  4 44  1  0
  5 45  1  0
  8 46  1  0
 11 47  1  0
 11 48  1  0
 13 49  1  0
 13 50  1  0
 14 51  1  0
 14 52  1  0
 15 53  1  0
 16 54  1  0
 16 55  1  0
 17 56  1  0
 17 57  1  0
 19 58  1  0
 19 59  1  0
 20 60  1  0
 20 61  1  0
 25 62  1  0
 27 63  1  0
 29 64  1  0
 30 65  1  0
 31 66  1  0
 32 67  1  0
 34 68  1  0
 34 69  1  0
 35 70  1  1
 36 71  1  0
 36 72  1  0
 37 73  1  0
 40 74  1  0
 41 75  1  0
 42 76  1  0
M  CHG  1  15   1
M  END
