
     RDKit          3D

 73 78  0  0  0  0  0  0  0  0999 V2000
    8.9319   -2.7628   23.6791 C   0  0  0  0  0  0  0  0  0  0  0  0
    8.9827   -1.7837   22.5136 C   0  0  1  0  0  0  0  0  0  0  0  0
    7.6445   -1.5662   21.7992 C   0  0  0  0  0  0  0  0  0  0  0  0
    7.8712   -0.3142   21.1065 N   0  0  0  0  0  0  0  0  0  0  0  0
    6.9948    0.1657   20.0961 C   0  0  0  0  0  0  0  0  0  0  0  0
    7.1907   -0.2181   18.7908 C   0  0  0  0  0  0  0  0  0  0  0  0
    6.3773    0.1165   17.7589 N   0  0  0  0  0  0  0  0  0  0  0  0
    5.3372    0.8650   18.0251 C   0  0  0  0  0  0  0  0  0  0  0  0
    5.0293    1.3562   19.3249 C   0  0  0  0  0  0  0  0  0  0  0  0
    3.9266    2.2230   19.5428 C   0  0  0  0  0  0  0  0  0  0  0  0
    3.6252    2.6557   20.8023 C   0  0  0  0  0  0  0  0  0  0  0  0
    4.4033    2.2374   21.9039 C   0  0  0  0  0  0  0  0  0  0  0  0
    5.4993    1.4263   21.7147 C   0  0  0  0  0  0  0  0  0  0  0  0
    5.8545    0.9769   20.4091 C   0  0  0  0  0  0  0  0  0  0  0  0
    8.8321    0.4701   21.7150 C   0  0  0  0  0  0  0  0  0  0  0  0
    9.0739    1.6134   21.4066 O   0  0  0  0  0  0  0  0  0  0  0  0
    9.4894   -0.3606   22.8555 C   0  0  1  0  0  0  0  0  0  0  0  0
    8.9474    0.1512   24.2135 C   0  0  0  0  0  0  0  0  0  0  0  0
    9.4101    1.4969   24.5182 N   0  0  0  0  0  0  0  0  0  0  0  0
    8.5659    2.2866   25.4008 C   0  0  0  0  0  0  0  0  0  0  0  0
    7.8008    3.3621   24.6483 C   0  0  0  0  0  0  0  0  0  0  0  0
    8.6287    4.5581   24.3148 N   0  0  0  0  0  0  0  0  0  0  0  0
    9.1611    5.3249   25.4955 C   0  0  0  0  0  0  0  0  0  0  0  0
    9.8166    6.6198   25.0112 C   0  0  0  0  0  0  0  0  0  0  0  0
    8.8998    7.4424   24.2302 N   0  0  0  0  0  0  0  0  0  0  0  0
    8.2476    8.8162   24.8774 S   0  0  0  0  0  0  0  0  0  0  0  0
    7.2559    8.2079   26.2343 C   0  0  0  0  0  0  0  0  0  0  0  0
    9.3525    9.5837   25.4292 O   0  0  0  0  0  0  0  0  0  0  0  0
    7.3534    9.3978   23.8909 O   0  0  0  0  0  0  0  0  0  0  0  0
    8.3142    6.7770   23.0784 C   0  0  0  0  0  0  0  0  0  0  0  0
    7.7737    5.3991   23.4289 C   0  0  0  0  0  0  0  0  0  0  0  0
   10.5772    1.9956   24.0400 C   0  0  0  0  0  0  0  0  0  0  0  0
   10.8860    3.1934   24.0934 O   0  0  0  0  0  0  0  0  0  0  0  0
   11.5067    1.0012   23.4334 C   0  0  0  0  0  0  0  0  0  0  0  0
   12.8664    1.3011   23.3940 C   0  0  0  0  0  0  0  0  0  0  0  0
   13.7585    0.3810   22.8817 C   0  0  0  0  0  0  0  0  0  0  0  0
   13.2615   -0.8370   22.4182 C   0  0  0  0  0  0  0  0  0  0  0  0
   14.3584   -1.9763   21.6894 Cl  0  0  0  0  0  0  0  0  0  0  0  0
   11.9155   -1.1551   22.4753 C   0  0  0  0  0  0  0  0  0  0  0  0
   10.9985   -0.1991   22.9244 C   0  0  0  0  0  0  0  0  0  0  0  0
    9.9059   -2.8151   24.1803 H   0  0  0  0  0  0  0  0  0  0  0  0
    8.6629   -3.7681   23.3391 H   0  0  0  0  0  0  0  0  0  0  0  0
    8.1877   -2.4464   24.4211 H   0  0  0  0  0  0  0  0  0  0  0  0
    9.6525   -2.1717   21.7379 H   0  0  0  0  0  0  0  0  0  0  0  0
    6.8089   -1.4959   22.5178 H   0  0  0  0  0  0  0  0  0  0  0  0
    7.4115   -2.3604   21.0849 H   0  0  0  0  0  0  0  0  0  0  0  0
    8.0530   -0.8300   18.5329 H   0  0  0  0  0  0  0  0  0  0  0  0
    4.6822    1.1365   17.1958 H   0  0  0  0  0  0  0  0  0  0  0  0
    3.3468    2.5425   18.6813 H   0  0  0  0  0  0  0  0  0  0  0  0
    2.7886    3.3294   20.9639 H   0  0  0  0  0  0  0  0  0  0  0  0
    4.1348    2.5631   22.9037 H   0  0  0  0  0  0  0  0  0  0  0  0
    6.1045    1.1411   22.5711 H   0  0  0  0  0  0  0  0  0  0  0  0
    7.8503    0.1643   24.1983 H   0  0  0  0  0  0  0  0  0  0  0  0
    9.2710   -0.5237   25.0146 H   0  0  0  0  0  0  0  0  0  0  0  0
    9.1509    2.7207   26.2164 H   0  0  0  0  0  0  0  0  0  0  0  0
    7.8483    1.6002   25.8569 H   0  0  0  0  0  0  0  0  0  0  0  0
    6.9109    3.6764   25.2149 H   0  0  0  0  0  0  0  0  0  0  0  0
    7.4569    2.9309   23.6949 H   0  0  0  0  0  0  0  0  0  0  0  0
    9.4796    4.1957   23.8331 H   0  0  0  0  0  0  0  0  0  0  0  0
    8.3496    5.5285   26.2056 H   0  0  0  0  0  0  0  0  0  0  0  0
    9.9311    4.7203   25.9862 H   0  0  0  0  0  0  0  0  0  0  0  0
   10.2270    7.2080   25.8334 H   0  0  0  0  0  0  0  0  0  0  0  0
   10.6552    6.3457   24.3552 H   0  0  0  0  0  0  0  0  0  0  0  0
    6.6733    9.0512   26.6163 H   0  0  0  0  0  0  0  0  0  0  0  0
    6.5833    7.4300   25.8582 H   0  0  0  0  0  0  0  0  0  0  0  0
    7.9134    7.8105   27.0158 H   0  0  0  0  0  0  0  0  0  0  0  0
    7.4895    7.3841   22.7032 H   0  0  0  0  0  0  0  0  0  0  0  0
    9.0651    6.7000   22.2877 H   0  0  0  0  0  0  0  0  0  0  0  0
    7.5483    4.8237   22.5258 H   0  0  0  0  0  0  0  0  0  0  0  0
    6.8333    5.5374   23.9675 H   0  0  0  0  0  0  0  0  0  0  0  0
   13.2029    2.2590   23.7750 H   0  0  0  0  0  0  0  0  0  0  0  0
   14.8201    0.5975   22.8220 H   0  0  0  0  0  0  0  0  0  0  0  0
   11.6026   -2.1385   22.1430 H   0  0  0  0  0  0  0  0  0  0  0  0
  1  2  1  0
  2  3  1  0
  3  4  1  0
  4  5  1  0
  5  6  2  0
  6  7  1  0
  7  8  2  0
  8  9  1  0
  9 10  2  0
 10 11  1  0
 11 12  2  0
 12 13  1  0
 13 14  2  0
  4 15  1  0
 15 16  2  0
 15 17  1  0
 17 18  1  1
 18 19  1  0
 19 20  1  0
 20 21  1  0
 21 22  1  0
 22 23  1  0
 23 24  1  0
 24 25  1  0
 25 26  1  0
 26 27  1  0
 26 28  2  0
 26 29  2  0
 25 30  1  0
 30 31  1  0
 19 32  1  0
 32 33  2  0
 32 34  1  0
 34 35  2  0
 35 36  1  0
 36 37  2  0
 37 38  1  0
 37 39  1  0
 39 40  2  0
 17  2  1  0
 31 22  1  0
 40 34  1  0
 14  5  1  0
 40 17  1  0
 14  9  1  0
  1 41  1  0
  1 42  1  0
  1 43  1  0
  2 44  1  6
  3 45  1  0
  3 46  1  0
  6 47  1  0
  8 48  1  0
 10 49  1  0
 11 50  1  0
 12 51  1  0
 13 52  1  0
 18 53  1  0
 18 54  1  0
 20 55  1  0
 20 56  1  0
 21 57  1  0
 21 58  1  0
 22 59  1  0
 23 60  1  0
 23 61  1  0
 24 62  1  0
 24 63  1  0
 27 64  1  0
 27 65  1  0
 27 66  1  0
 30 67  1  0
 30 68  1  0
 31 69  1  0
 31 70  1  0
 35 71  1  0
 36 72  1  0
 39 73  1  0
M  CHG  1  22   1
M  END
$$$$
