
     RDKit          3D

 60 64  0  0  0  0  0  0  0  0999 V2000
    6.6098    3.7766   27.7317 C   0  0  0  0  0  0  0  0  0  0  0  0
    6.4444    3.1975   26.4126 N   0  0  0  0  0  0  0  0  0  0  0  0
    6.3471    4.0207   25.3341 C   0  0  0  0  0  0  0  0  0  0  0  0
    6.4153    5.2325   25.4496 O   0  0  0  0  0  0  0  0  0  0  0  0
    6.1593    3.3409   23.9748 C   0  0  0  0  0  0  0  0  0  0  0  0
    7.3761    2.7183   23.4883 N   0  0  0  0  0  0  0  0  0  0  0  0
    7.6027    1.2920   23.6420 C   0  0  0  0  0  0  0  0  0  0  0  0
    8.4083    0.7198   22.4334 C   0  0  2  0  0  0  0  0  0  0  0  0
    7.6518    0.9668   21.1024 C   0  0  0  0  0  0  0  0  0  0  0  0
    7.7031    1.9308   20.3705 O   0  0  0  0  0  0  0  0  0  0  0  0
    6.8673   -0.1432   20.8670 N   0  0  0  0  0  0  0  0  0  0  0  0
    5.8684   -0.1103   19.8695 C   0  0  0  0  0  0  0  0  0  0  0  0
    6.0448   -0.7838   18.6917 C   0  0  0  0  0  0  0  0  0  0  0  0
    5.2159   -0.6718   17.6255 N   0  0  0  0  0  0  0  0  0  0  0  0
    4.1614    0.0996   17.7602 C   0  0  0  0  0  0  0  0  0  0  0  0
    3.8160    0.7855   18.9600 C   0  0  0  0  0  0  0  0  0  0  0  0
    2.6439    1.5756   19.0881 C   0  0  0  0  0  0  0  0  0  0  0  0
    2.3135    2.1451   20.2862 C   0  0  0  0  0  0  0  0  0  0  0  0
    3.1654    1.9953   21.4030 C   0  0  0  0  0  0  0  0  0  0  0  0
    4.3288    1.2822   21.2956 C   0  0  0  0  0  0  0  0  0  0  0  0
    4.6821    0.6596   20.0655 C   0  0  0  0  0  0  0  0  0  0  0  0
    7.0675   -1.2250   21.8143 C   0  0  0  0  0  0  0  0  0  0  0  0
    8.4157   -0.8370   22.4631 C   0  0  1  0  0  0  0  0  0  0  0  0
    9.4831   -1.4425   21.6846 N   0  0  0  0  0  0  0  0  0  0  0  0
   10.3531   -2.3689   22.1954 C   0  0  0  0  0  0  0  0  0  0  0  0
    9.7982   -3.2171   23.3247 C   0  0  0  0  0  0  0  0  0  0  0  0
   11.4868   -2.4727   21.7609 O   0  0  0  0  0  0  0  0  0  0  0  0
    9.7091    1.4937   22.4592 C   0  0  0  0  0  0  0  0  0  0  0  0
   10.9972    0.9607   22.3898 C   0  0  0  0  0  0  0  0  0  0  0  0
   12.0888    1.8017   22.2668 C   0  0  0  0  0  0  0  0  0  0  0  0
   13.6757    1.0938   22.1660 Cl  0  0  0  0  0  0  0  0  0  0  0  0
   11.9598    3.1879   22.1977 C   0  0  0  0  0  0  0  0  0  0  0  0
   10.6967    3.7239   22.3447 C   0  0  0  0  0  0  0  0  0  0  0  0
    9.6037    2.8899   22.5465 C   0  0  0  0  0  0  0  0  0  0  0  0
    8.3129    3.5451   22.9280 C   0  0  0  0  0  0  0  0  0  0  0  0
    8.1285    4.7417   22.7730 O   0  0  0  0  0  0  0  0  0  0  0  0
    5.6578    4.0987   28.1753 H   0  0  0  0  0  0  0  0  0  0  0  0
    7.0698    3.0417   28.3948 H   0  0  0  0  0  0  0  0  0  0  0  0
    7.2496    4.6590   27.6311 H   0  0  0  0  0  0  0  0  0  0  0  0
    6.3857    2.1983   26.2967 H   0  0  0  0  0  0  0  0  0  0  0  0
    5.3628    2.5885   24.0335 H   0  0  0  0  0  0  0  0  0  0  0  0
    5.8681    4.1044   23.2500 H   0  0  0  0  0  0  0  0  0  0  0  0
    8.1874    1.0758   24.5510 H   0  0  0  0  0  0  0  0  0  0  0  0
    6.6328    0.7946   23.7385 H   0  0  0  0  0  0  0  0  0  0  0  0
    6.9155   -1.4287   18.5656 H   0  0  0  0  0  0  0  0  0  0  0  0
    3.4942    0.1785   16.9023 H   0  0  0  0  0  0  0  0  0  0  0  0
    2.0165    1.7244   18.2176 H   0  0  0  0  0  0  0  0  0  0  0  0
    1.3960    2.7158   20.3888 H   0  0  0  0  0  0  0  0  0  0  0  0
    2.8933    2.4521   22.3489 H   0  0  0  0  0  0  0  0  0  0  0  0
    4.9926    1.1742   22.1501 H   0  0  0  0  0  0  0  0  0  0  0  0
    6.2611   -1.2872   22.5620 H   0  0  0  0  0  0  0  0  0  0  0  0
    7.1327   -2.1813   21.2867 H   0  0  0  0  0  0  0  0  0  0  0  0
    8.5039   -1.1876   23.4972 H   0  0  0  0  0  0  0  0  0  0  0  0
    9.8282   -0.9470   20.8710 H   0  0  0  0  0  0  0  0  0  0  0  0
   10.3823   -4.1261   23.4212 H   0  0  0  0  0  0  0  0  0  0  0  0
    8.7441   -3.4517   23.1422 H   0  0  0  0  0  0  0  0  0  0  0  0
    9.8810   -2.6687   24.2702 H   0  0  0  0  0  0  0  0  0  0  0  0
   11.1835   -0.0976   22.4292 H   0  0  0  0  0  0  0  0  0  0  0  0
   12.8245    3.8271   22.0581 H   0  0  0  0  0  0  0  0  0  0  0  0
   10.5103    4.7938   22.3341 H   0  0  0  0  0  0  0  0  0  0  0  0
  1  2  1  0
  2  3  1  0
  3  4  2  0
  3  5  1  0
  5  6  1  0
  6  7  1  0
  8  7  1  1
  8  9  1  0
  9 10  2  0
  9 11  1  0
 11 12  1  0
 12 13  2  0
 13 14  1  0
 14 15  2  0
 15 16  1  0
 16 17  2  0
 17 18  1  0
 18 19  2  0
 19 20  1  0
 20 21  2  0
 11 22  1  0
 22 23  1  0
 23 24  1  0
 24 25  1  0
 25 26  1  0
 25 27  2  0
  8 28  1  0
 28 29  2  0
 29 30  1  0
 30 31  1  0
 30 32  2  0
 32 33  1  0
 33 34  2  0
 34 35  1  0
 35 36  2  0
 35  6  1  0
 23  8  1  0
 34 28  1  0
 21 12  1  0
 21 16  1  0
  1 37  1  0
  1 38  1  0
  1 39  1  0
  2 40  1  0
  5 41  1  0
  5 42  1  0
  7 43  1  0
  7 44  1  0
 13 45  1  0
 15 46  1  0
 17 47  1  0
 18 48  1  0
 19 49  1  0
 20 50  1  0
 22 51  1  0
 22 52  1  0
 23 53  1  6
 24 54  1  0
 26 55  1  0
 26 56  1  0
 26 57  1  0
 29 58  1  0
 32 59  1  0
 33 60  1  0
M  END
$$$$
