
     RDKit          3D

 68 73  0  0  0  0  0  0  0  0999 V2000
    7.2824    4.6523   22.3827 C   0  0  0  0  0  0  0  0  0  0  0  0
    8.1038    3.7467   23.1599 N   0  0  0  0  0  0  0  0  0  0  0  0
    7.8494    3.5918   24.4766 C   0  0  0  0  0  0  0  0  0  0  0  0
    7.0753    4.3012   25.1054 O   0  0  0  0  0  0  0  0  0  0  0  0
    8.5511    2.4534   25.2224 C   0  0  0  0  0  0  0  0  0  0  0  0
    9.3873    1.5703   24.4500 N   0  0  0  0  0  0  0  0  0  0  0  0
    8.9451    0.2051   24.2098 C   0  0  0  0  0  0  0  0  0  0  0  0
    9.4898   -0.3386   22.8626 C   0  0  2  0  0  0  0  0  0  0  0  0
    8.8411    0.4746   21.7169 C   0  0  0  0  0  0  0  0  0  0  0  0
    9.1118    1.6223   21.4122 O   0  0  0  0  0  0  0  0  0  0  0  0
    7.8747   -0.2957   21.1125 N   0  0  0  0  0  0  0  0  0  0  0  0
    6.9975    0.1786   20.0981 C   0  0  0  0  0  0  0  0  0  0  0  0
    7.2112   -0.1875   18.7920 C   0  0  0  0  0  0  0  0  0  0  0  0
    6.4189    0.1715   17.7514 N   0  0  0  0  0  0  0  0  0  0  0  0
    5.3786    0.9270   18.0053 C   0  0  0  0  0  0  0  0  0  0  0  0
    5.0452    1.3928   19.3100 C   0  0  0  0  0  0  0  0  0  0  0  0
    3.9372    2.2510   19.5359 C   0  0  0  0  0  0  0  0  0  0  0  0
    3.6149    2.6542   20.8000 C   0  0  0  0  0  0  0  0  0  0  0  0
    4.3850    2.2182   21.8994 C   0  0  0  0  0  0  0  0  0  0  0  0
    5.4841    1.4180   21.7076 C   0  0  0  0  0  0  0  0  0  0  0  0
    5.8568    0.9936   20.4002 C   0  0  0  0  0  0  0  0  0  0  0  0
    7.6540   -1.5584   21.7888 C   0  0  0  0  0  0  0  0  0  0  0  0
    8.9907   -1.7658   22.5047 C   0  0  2  0  0  0  0  0  0  0  0  0
    8.9628   -2.7571   23.6737 C   0  0  0  0  0  0  0  0  0  0  0  0
    8.7274   -4.1424   23.3358 N   0  0  0  0  0  0  0  0  0  0  0  0
    7.4546   -4.6809   23.1719 C   0  0  0  0  0  0  0  0  0  0  0  0
    6.1918   -4.2095   23.6139 C   0  0  0  0  0  0  0  0  0  0  0  0
    5.2260   -5.0807   23.3330 N   0  0  0  0  0  0  0  0  0  0  0  0
    5.8316   -6.0876   22.7083 N   0  0  0  0  0  0  0  0  0  0  0  0
    5.0654   -7.2387   22.3091 C   0  0  0  0  0  0  0  0  0  0  0  0
    7.1684   -5.9034   22.5921 C   0  0  0  0  0  0  0  0  0  0  0  0
   10.9965   -0.1714   22.9293 C   0  0  0  0  0  0  0  0  0  0  0  0
   11.9033   -1.1048   22.4202 C   0  0  0  0  0  0  0  0  0  0  0  0
   13.2480   -0.7905   22.3349 C   0  0  0  0  0  0  0  0  0  0  0  0
   14.3032   -1.9040   21.5074 Cl  0  0  0  0  0  0  0  0  0  0  0  0
   13.7627    0.4066   22.8312 C   0  0  0  0  0  0  0  0  0  0  0  0
   12.8865    1.3002   23.4132 C   0  0  0  0  0  0  0  0  0  0  0  0
   11.5261    1.0064   23.4764 C   0  0  0  0  0  0  0  0  0  0  0  0
   10.6383    2.0160   24.1242 C   0  0  0  0  0  0  0  0  0  0  0  0
   11.0023    3.1675   24.3241 O   0  0  0  0  0  0  0  0  0  0  0  0
    6.2267    4.5472   22.6633 H   0  0  0  0  0  0  0  0  0  0  0  0
    7.5584    5.7052   22.5212 H   0  0  0  0  0  0  0  0  0  0  0  0
    7.3951    4.3929   21.3253 H   0  0  0  0  0  0  0  0  0  0  0  0
    8.6725    3.0759   22.6461 H   0  0  0  0  0  0  0  0  0  0  0  0
    9.1364    2.9090   26.0242 H   0  0  0  0  0  0  0  0  0  0  0  0
    7.7610    1.8662   25.7015 H   0  0  0  0  0  0  0  0  0  0  0  0
    9.2842   -0.4468   25.0265 H   0  0  0  0  0  0  0  0  0  0  0  0
    7.8487    0.1973   24.1944 H   0  0  0  0  0  0  0  0  0  0  0  0
    8.0846   -0.7855   18.5326 H   0  0  0  0  0  0  0  0  0  0  0  0
    4.7561    1.2349   17.1627 H   0  0  0  0  0  0  0  0  0  0  0  0
    3.3600    2.5846   18.6797 H   0  0  0  0  0  0  0  0  0  0  0  0
    2.7744    3.3207   20.9683 H   0  0  0  0  0  0  0  0  0  0  0  0
    4.1236    2.5463   22.9011 H   0  0  0  0  0  0  0  0  0  0  0  0
    6.0768    1.1083   22.5636 H   0  0  0  0  0  0  0  0  0  0  0  0
    6.8162   -1.4907   22.5037 H   0  0  0  0  0  0  0  0  0  0  0  0
    7.4148   -2.3428   21.0654 H   0  0  0  0  0  0  0  0  0  0  0  0
    9.6673   -2.1421   21.7302 H   0  0  0  0  0  0  0  0  0  0  0  0
    8.1838   -2.4610   24.3811 H   0  0  0  0  0  0  0  0  0  0  0  0
    9.9143   -2.6838   24.2162 H   0  0  0  0  0  0  0  0  0  0  0  0
    9.4267   -4.5848   22.7558 H   0  0  0  0  0  0  0  0  0  0  0  0
    5.9256   -3.2833   24.1110 H   0  0  0  0  0  0  0  0  0  0  0  0
    5.4493   -7.6310   21.3668 H   0  0  0  0  0  0  0  0  0  0  0  0
    4.0354   -6.9078   22.1814 H   0  0  0  0  0  0  0  0  0  0  0  0
    5.1019   -8.0262   23.0669 H   0  0  0  0  0  0  0  0  0  0  0  0
    7.8001   -6.6256   22.0917 H   0  0  0  0  0  0  0  0  0  0  0  0
   11.5852   -2.0620   22.0238 H   0  0  0  0  0  0  0  0  0  0  0  0
   14.8204    0.6295   22.7248 H   0  0  0  0  0  0  0  0  0  0  0  0
   13.2341    2.2526   23.8001 H   0  0  0  0  0  0  0  0  0  0  0  0
  1  2  1  0
  2  3  1  0
  3  4  2  0
  3  5  1  0
  5  6  1  0
  6  7  1  0
  8  7  1  1
  8  9  1  0
  9 10  2  0
  9 11  1  0
 11 12  1  0
 12 13  2  0
 13 14  1  0
 14 15  2  0
 15 16  1  0
 16 17  2  0
 17 18  1  0
 18 19  2  0
 19 20  1  0
 20 21  2  0
 11 22  1  0
 22 23  1  0
 23 24  1  0
 24 25  1  0
 25 26  1  0
 26 27  1  0
 27 28  2  0
 28 29  1  0
 29 30  1  0
 29 31  1  0
  8 32  1  0
 32 33  2  0
 33 34  1  0
 34 35  1  0
 34 36  2  0
 36 37  1  0
 37 38  2  0
 38 39  1  0
 39 40  2  0
 39  6  1  0
 23  8  1  0
 31 26  2  0
 38 32  1  0
 21 12  1  0
 21 16  1  0
  1 41  1  0
  1 42  1  0
  1 43  1  0
  2 44  1  0
  5 45  1  0
  5 46  1  0
  7 47  1  0
  7 48  1  0
 13 49  1  0
 15 50  1  0
 17 51  1  0
 18 52  1  0
 19 53  1  0
 20 54  1  0
 22 55  1  0
 22 56  1  0
 23 57  1  6
 24 58  1  0
 24 59  1  0
 25 60  1  0
 27 61  1  0
 30 62  1  0
 30 63  1  0
 30 64  1  0
 31 65  1  0
 33 66  1  0
 36 67  1  0
 37 68  1  0
M  END
$$$$
