
     RDKit          3D

 50 52  0  0  0  0  0  0  0  0999 V2000
   -7.5367    1.2108  -24.0585 C   0  0  0  0  0  0  0  0  0  0  0  0
   -7.5299   -0.0869  -24.3739 C   0  0  0  0  0  0  0  0  0  0  0  0
   -8.0412   -1.2808  -23.5556 C   0  0  0  0  0  0  0  0  0  0  0  0
   -9.0098   -1.0169  -22.5008 N   0  0  0  0  0  0  0  0  0  0  0  0
   -8.5442   -0.3318  -21.3777 C   0  0  0  0  0  0  0  0  0  0  0  0
   -8.9466    0.7563  -21.0359 O   0  0  0  0  0  0  0  0  0  0  0  0
   -7.5485   -1.0248  -20.7152 N   0  0  0  0  0  0  0  0  0  0  0  0
   -6.7767   -0.4036  -19.7049 C   0  0  0  0  0  0  0  0  0  0  0  0
   -6.9983   -0.6465  -18.3752 C   0  0  0  0  0  0  0  0  0  0  0  0
   -6.3089   -0.0593  -17.3619 N   0  0  0  0  0  0  0  0  0  0  0  0
   -5.3603    0.7930  -17.6845 C   0  0  0  0  0  0  0  0  0  0  0  0
   -5.0301    1.1404  -19.0309 C   0  0  0  0  0  0  0  0  0  0  0  0
   -4.0271    2.0920  -19.3670 C   0  0  0  0  0  0  0  0  0  0  0  0
   -3.7873    2.4134  -20.6760 C   0  0  0  0  0  0  0  0  0  0  0  0
   -4.5286    1.8102  -21.7153 C   0  0  0  0  0  0  0  0  0  0  0  0
   -5.4618    0.8454  -21.4279 C   0  0  0  0  0  0  0  0  0  0  0  0
   -5.7583    0.5227  -20.0732 C   0  0  0  0  0  0  0  0  0  0  0  0
  -10.3709   -0.7722  -22.8295 C   0  0  0  0  0  0  0  0  0  0  0  0
  -10.7722    0.3240  -23.5865 C   0  0  0  0  0  0  0  0  0  0  0  0
  -12.1250    0.5315  -23.8236 C   0  0  0  0  0  0  0  0  0  0  0  0
  -13.0769   -0.3458  -23.3174 C   0  0  0  0  0  0  0  0  0  0  0  0
  -12.6524   -1.4287  -22.5575 C   0  0  0  0  0  0  0  0  0  0  0  0
  -13.8197   -2.5462  -21.9189 Cl  0  0  0  0  0  0  0  0  0  0  0  0
  -11.3105   -1.6394  -22.2821 C   0  0  0  0  0  0  0  0  0  0  0  0
   -6.9802   -0.4558  -25.7310 C   0  0  0  0  0  0  0  0  0  0  0  0
   -7.0644    0.2798  -26.7093 O   0  0  0  0  0  0  0  0  0  0  0  0
   -6.3811   -1.6753  -25.7724 N   0  0  0  0  0  0  0  0  0  0  0  0
   -5.9744   -2.2852  -27.0247 C   0  0  0  0  0  0  0  0  0  0  0  0
   -7.1666   -2.7730  -27.8533 C   0  0  0  0  0  0  0  0  0  0  0  0
   -7.2212    1.9555  -24.7928 H   0  0  0  0  0  0  0  0  0  0  0  0
   -7.8727    1.5766  -23.0883 H   0  0  0  0  0  0  0  0  0  0  0  0
   -7.1985   -1.7897  -23.0670 H   0  0  0  0  0  0  0  0  0  0  0  0
   -8.5023   -2.0048  -24.2319 H   0  0  0  0  0  0  0  0  0  0  0  0
   -7.5581   -2.0322  -20.7944 H   0  0  0  0  0  0  0  0  0  0  0  0
   -7.7922   -1.3331  -18.0792 H   0  0  0  0  0  0  0  0  0  0  0  0
   -4.8380    1.2870  -16.8615 H   0  0  0  0  0  0  0  0  0  0  0  0
   -3.4614    2.5728  -18.5735 H   0  0  0  0  0  0  0  0  0  0  0  0
   -3.0270    3.1418  -20.9425 H   0  0  0  0  0  0  0  0  0  0  0  0
   -4.3287    2.1098  -22.7397 H   0  0  0  0  0  0  0  0  0  0  0  0
   -5.9737    0.3211  -22.2318 H   0  0  0  0  0  0  0  0  0  0  0  0
  -10.0346    1.0338  -23.9458 H   0  0  0  0  0  0  0  0  0  0  0  0
  -12.4365    1.4100  -24.3776 H   0  0  0  0  0  0  0  0  0  0  0  0
  -14.1376   -0.2088  -23.5080 H   0  0  0  0  0  0  0  0  0  0  0  0
  -10.9776   -2.4594  -21.6497 H   0  0  0  0  0  0  0  0  0  0  0  0
   -6.2769   -2.2023  -24.9190 H   0  0  0  0  0  0  0  0  0  0  0  0
   -5.3886   -1.5504  -27.5911 H   0  0  0  0  0  0  0  0  0  0  0  0
   -5.3168   -3.1275  -26.7814 H   0  0  0  0  0  0  0  0  0  0  0  0
   -6.8155   -3.2915  -28.7521 H   0  0  0  0  0  0  0  0  0  0  0  0
   -7.7958   -1.9262  -28.1508 H   0  0  0  0  0  0  0  0  0  0  0  0
   -7.7823   -3.4724  -27.2738 H   0  0  0  0  0  0  0  0  0  0  0  0
  1  2  2  0
  2  3  1  0
  3  4  1  0
  4  5  1  0
  5  6  2  0
  5  7  1  0
  7  8  1  0
  8  9  2  0
  9 10  1  0
 10 11  2  0
 11 12  1  0
 12 13  2  0
 13 14  1  0
 14 15  2  0
 15 16  1  0
 16 17  2  0
  4 18  1  0
 18 19  2  0
 19 20  1  0
 20 21  2  0
 21 22  1  0
 22 23  1  0
 22 24  2  0
  2 25  1  0
 25 26  2  0
 25 27  1  0
 27 28  1  0
 28 29  1  0
 17  8  1  0
 24 18  1  0
 17 12  1  0
  1 30  1  0
  1 31  1  0
  3 32  1  0
  3 33  1  0
  7 34  1  0
  9 35  1  0
 11 36  1  0
 13 37  1  0
 14 38  1  0
 15 39  1  0
 16 40  1  0
 19 41  1  0
 20 42  1  0
 21 43  1  0
 24 44  1  0
 27 45  1  0
 28 46  1  0
 28 47  1  0
 29 48  1  0
 29 49  1  0
 29 50  1  0
M  END
$$$$
