mobile
  PyMOL3.1          3D                             0

 55 58  0  0  0  0  0  0  0  0999 V2000
  -10.4306    1.9866  -24.5796 O   0  0  0  0  0  0  0  0  0  0  0  0
  -10.0277    0.8582  -24.3571 C   0  0  0  0  0  0  0  0  0  0  0  0
   -8.7118    0.5111  -24.5237 N   0  0  0  0  0  0  0  0  0  0  0  0
   -7.7984    1.4297  -25.1791 C   0  0  0  0  0  0  0  0  0  0  0  0
   -7.2795    2.6188  -24.3876 C   0  0  0  0  0  0  0  0  0  0  0  0
   -6.6819    3.5301  -24.9542 O   0  0  0  0  0  0  0  0  0  0  0  0
   -7.4823    2.6132  -23.0751 N   0  0  0  0  0  0  0  0  0  0  0  0
   -6.8487    3.5741  -22.1904 C   0  0  0  0  0  0  0  0  0  0  0  0
  -10.8939   -0.1476  -23.7333 C   0  0  0  0  0  0  0  0  0  0  0  0
  -12.2604    0.1141  -23.6223 C   0  0  0  0  0  0  0  0  0  0  0  0
  -13.0875   -0.7587  -22.9429 C   0  0  0  0  0  0  0  0  0  0  0  0
  -12.5478   -1.8964  -22.3885 C   0  0  0  0  0  0  0  0  0  0  0  0
  -13.5961   -3.0088  -21.5594 Cl  0  0  0  0  0  0  0  0  0  0  0  0
  -11.1954   -2.1760  -22.4674 C   0  0  0  0  0  0  0  0  0  0  0  0
  -10.3444   -1.2821  -23.1227 C   0  0  0  0  0  0  0  0  0  0  0  0
   -8.8433   -1.4730  -23.0621 C   0  0  0  0  0  0  0  0  0  0  0  0
   -8.1975   -0.8422  -24.2962 C   0  0  0  0  0  0  0  0  0  0  0  0
   -8.3109   -0.7567  -21.8161 C   0  0  0  0  0  0  0  0  0  0  0  0
   -8.7494    0.3360  -21.4504 O   0  0  0  0  0  0  0  0  0  0  0  0
   -7.2917   -1.3913  -21.1825 N   0  0  0  0  0  0  0  0  0  0  0  0
   -6.5511   -0.9485  -20.0556 C   0  0  0  0  0  0  0  0  0  0  0  0
   -5.4293   -0.0915  -20.2806 C   0  0  0  0  0  0  0  0  0  0  0  0
   -4.7598    0.4546  -19.1450 C   0  0  0  0  0  0  0  0  0  0  0  0
   -5.2267    0.0758  -17.8616 C   0  0  0  0  0  0  0  0  0  0  0  0
   -6.2460   -0.7475  -17.6521 N   0  0  0  0  0  0  0  0  0  0  0  0
   -6.8823   -1.2326  -18.7300 C   0  0  0  0  0  0  0  0  0  0  0  0
   -4.9369    0.2329  -21.5687 C   0  0  0  0  0  0  0  0  0  0  0  0
   -3.8593    1.0517  -21.7319 C   0  0  0  0  0  0  0  0  0  0  0  0
   -3.2334    1.6011  -20.6212 C   0  0  0  0  0  0  0  0  0  0  0  0
   -3.6567    1.3185  -19.3475 C   0  0  0  0  0  0  0  0  0  0  0  0
   -1.9407    2.7850  -20.8523 S   0  0  0  0  0  0  0  0  0  0  0  0
   -2.5349    4.0099  -21.3094 O   0  0  0  0  0  0  0  0  0  0  0  0
   -1.1511    2.8292  -19.6537 O   0  0  0  0  0  0  0  0  0  0  0  0
   -0.9630    2.1283  -22.1459 C   0  0  0  0  0  0  0  0  0  0  0  0
   -6.9239    0.8453  -25.5006 H   0  0  0  0  0  0  0  0  0  0  0  0
   -8.3176    1.8288  -26.0637 H   0  0  0  0  0  0  0  0  0  0  0  0
   -8.0918    1.9246  -22.6836 H   0  0  0  0  0  0  0  0  0  0  0  0
   -7.1608    3.3794  -21.1540 H   0  0  0  0  0  0  0  0  0  0  0  0
   -5.7558    3.4783  -22.2687 H   0  0  0  0  0  0  0  0  0  0  0  0
   -7.1491    4.5921  -22.4789 H   0  0  0  0  0  0  0  0  0  0  0  0
  -12.6731    1.0051  -24.0710 H   0  0  0  0  0  0  0  0  0  0  0  0
  -14.1429   -0.5505  -22.8488 H   0  0  0  0  0  0  0  0  0  0  0  0
  -10.8003   -3.0786  -22.0259 H   0  0  0  0  0  0  0  0  0  0  0  0
   -8.5977   -2.5438  -23.0138 H   0  0  0  0  0  0  0  0  0  0  0  0
   -7.1092   -0.7930  -24.1470 H   0  0  0  0  0  0  0  0  0  0  0  0
   -8.4196   -1.4643  -25.1764 H   0  0  0  0  0  0  0  0  0  0  0  0
   -7.0309   -2.2811  -21.5562 H   0  0  0  0  0  0  0  0  0  0  0  0
   -4.7199    0.4825  -16.9989 H   0  0  0  0  0  0  0  0  0  0  0  0
   -7.7174   -1.8954  -18.5576 H   0  0  0  0  0  0  0  0  0  0  0  0
   -5.4254   -0.1764  -22.4399 H   0  0  0  0  0  0  0  0  0  0  0  0
   -3.4918    1.2727  -22.7236 H   0  0  0  0  0  0  0  0  0  0  0  0
   -3.1485    1.7549  -18.5004 H   0  0  0  0  0  0  0  0  0  0  0  0
   -0.1267    2.8094  -22.3566 H   0  0  0  0  0  0  0  0  0  0  0  0
   -0.5688    1.1461  -21.8451 H   0  0  0  0  0  0  0  0  0  0  0  0
   -1.5793    2.0140  -23.0497 H   0  0  0  0  0  0  0  0  0  0  0  0
  1  2  2  0  0  0  0
  2  3  1  0  0  0  0
  2  9  1  0  0  0  0
  3  4  1  0  0  0  0
  3 17  1  0  0  0  0
  4  5  1  0  0  0  0
  4 35  1  0  0  0  0
  4 36  1  0  0  0  0
  5  6  2  0  0  0  0
  5  7  1  0  0  0  0
  7  8  1  0  0  0  0
  7 37  1  0  0  0  0
  8 38  1  0  0  0  0
  8 39  1  0  0  0  0
  8 40  1  0  0  0  0
  9 10  4  0  0  0  0
  9 15  4  0  0  0  0
 10 11  4  0  0  0  0
 10 41  1  0  0  0  0
 11 12  4  0  0  0  0
 11 42  1  0  0  0  0
 12 13  1  0  0  0  0
 12 14  4  0  0  0  0
 14 15  4  0  0  0  0
 14 43  1  0  0  0  0
 15 16  1  0  0  0  0
 16 17  1  0  0  0  0
 16 18  1  0  0  0  0
 16 44  1  0  0  0  0
 17 45  1  0  0  0  0
 17 46  1  0  0  0  0
 18 19  2  0  0  0  0
 18 20  1  0  0  0  0
 20 21  1  0  0  0  0
 20 47  1  0  0  0  0
 21 22  4  0  0  0  0
 21 26  4  0  0  0  0
 22 23  4  0  0  0  0
 22 27  4  0  0  0  0
 23 24  4  0  0  0  0
 23 30  4  0  0  0  0
 24 25  4  0  0  0  0
 24 48  1  0  0  0  0
 25 26  4  0  0  0  0
 26 49  1  0  0  0  0
 27 28  4  0  0  0  0
 27 50  1  0  0  0  0
 28 29  4  0  0  0  0
 28 51  1  0  0  0  0
 29 30  4  0  0  0  0
 29 31  1  0  0  0  0
 30 52  1  0  0  0  0
 31 32  2  0  0  0  0
 31 33  2  0  0  0  0
 31 34  1  0  0  0  0
 34 53  1  0  0  0  0
 34 54  1  0  0  0  0
 34 55  1  0  0  0  0
M  END
$$$$
