
     RDKit          3D

 40 42  0  0  0  0  0  0  0  0999 V2000
    9.7355    0.2213   20.9813 O   0  0  0  0  0  0  0  0  0  0  0  0
    8.6965   -0.3300   21.2908 C   0  0  0  0  0  0  0  0  0  0  0  0
    7.4223    0.5416   21.3456 C   0  0  0  0  0  0  0  0  0  0  0  0
    6.5000    0.6237   20.1176 C   0  0  0  0  0  0  0  0  0  0  0  0
    6.9058    0.2042   18.8347 C   0  0  0  0  0  0  0  0  0  0  0  0
    6.1036    0.2492   17.7543 N   0  0  0  0  0  0  0  0  0  0  0  0
    4.8648    0.7553   17.8954 C   0  0  0  0  0  0  0  0  0  0  0  0
    4.3823    1.2669   19.1047 C   0  0  0  0  0  0  0  0  0  0  0  0
    3.1007    1.8475   19.1923 C   0  0  0  0  0  0  0  0  0  0  0  0
    2.6163    2.2809   20.4302 C   0  0  0  0  0  0  0  0  0  0  0  0
    3.4133    2.1602   21.5750 C   0  0  0  0  0  0  0  0  0  0  0  0
    4.7160    1.6523   21.4736 C   0  0  0  0  0  0  0  0  0  0  0  0
    5.2081    1.1852   20.2459 C   0  0  0  0  0  0  0  0  0  0  0  0
    8.7741   -1.6048   21.8601 N   0  0  0  0  0  0  0  0  0  0  0  0
   10.0849   -2.1718   22.1684 C   0  0  0  0  0  0  0  0  0  0  0  0
   10.6321   -1.4226   23.3931 C   0  0  0  0  0  0  0  0  0  0  0  0
    9.6092   -1.3084   24.5698 C   0  0  0  0  0  0  0  0  0  0  0  0
   10.0776   -0.2231   25.5700 C   0  0  0  0  0  0  0  0  0  0  0  0
   11.4145   -0.3209   25.8143 F   0  0  0  0  0  0  0  0  0  0  0  0
    9.4189   -0.3415   26.7542 F   0  0  0  0  0  0  0  0  0  0  0  0
    8.1619   -1.0060   24.0760 C   0  0  0  0  0  0  0  0  0  0  0  0
    7.8105   -1.9211   22.8956 C   0  0  0  0  0  0  0  0  0  0  0  0
    7.7640    1.5530   21.5647 H   0  0  0  0  0  0  0  0  0  0  0  0
    6.8364    0.2054   22.2051 H   0  0  0  0  0  0  0  0  0  0  0  0
    7.9328   -0.1265   18.6919 H   0  0  0  0  0  0  0  0  0  0  0  0
    4.2023    0.7486   17.0339 H   0  0  0  0  0  0  0  0  0  0  0  0
    2.4751    1.9529   18.3085 H   0  0  0  0  0  0  0  0  0  0  0  0
    1.6159    2.7010   20.4971 H   0  0  0  0  0  0  0  0  0  0  0  0
    3.0278    2.4692   22.5422 H   0  0  0  0  0  0  0  0  0  0  0  0
    5.3453    1.6106   22.3583 H   0  0  0  0  0  0  0  0  0  0  0  0
   10.0049   -3.2389   22.4044 H   0  0  0  0  0  0  0  0  0  0  0  0
   10.7617   -2.0872   21.3104 H   0  0  0  0  0  0  0  0  0  0  0  0
   10.9035   -0.4147   23.0704 H   0  0  0  0  0  0  0  0  0  0  0  0
   11.5498   -1.9209   23.7307 H   0  0  0  0  0  0  0  0  0  0  0  0
    9.5903   -2.2689   25.0948 H   0  0  0  0  0  0  0  0  0  0  0  0
    9.8711    0.7613   25.1462 H   0  0  0  0  0  0  0  0  0  0  0  0
    7.4367   -1.1684   24.8827 H   0  0  0  0  0  0  0  0  0  0  0  0
    8.0980    0.0409   23.7447 H   0  0  0  0  0  0  0  0  0  0  0  0
    6.7912   -1.7693   22.5410 H   0  0  0  0  0  0  0  0  0  0  0  0
    7.8925   -2.9683   23.2049 H   0  0  0  0  0  0  0  0  0  0  0  0
  1  2  2  0
  2  3  1  0
  3  4  1  0
  4  5  2  0
  5  6  1  0
  6  7  2  0
  7  8  1  0
  8  9  2  0
  9 10  1  0
 10 11  2  0
 11 12  1  0
 12 13  2  0
  2 14  1  0
 14 15  1  0
 15 16  1  0
 16 17  1  0
 17 18  1  0
 18 19  1  0
 18 20  1  0
 17 21  1  0
 21 22  1  0
 13  4  1  0
 22 14  1  0
 13  8  1  0
  3 23  1  0
  3 24  1  0
  5 25  1  0
  7 26  1  0
  9 27  1  0
 10 28  1  0
 11 29  1  0
 12 30  1  0
 15 31  1  0
 15 32  1  0
 16 33  1  0
 16 34  1  0
 17 35  1  0
 18 36  1  0
 21 37  1  0
 21 38  1  0
 22 39  1  0
 22 40  1  0
M  END
$$$$
