
     RDKit          3D

 66 71  0  0  0  0  0  0  0  0999 V2000
    7.2797    4.6545   22.3834 C   0  0  0  0  0  0  0  0  0  0  0  0
    8.1091    3.7512   23.1596 N   0  0  0  0  0  0  0  0  0  0  0  0
    7.8514    3.5942   24.4774 C   0  0  0  0  0  0  0  0  0  0  0  0
    7.0766    4.2989   25.1094 O   0  0  0  0  0  0  0  0  0  0  0  0
    8.5537    2.4533   25.2233 C   0  0  0  0  0  0  0  0  0  0  0  0
    9.3917    1.5704   24.4537 N   0  0  0  0  0  0  0  0  0  0  0  0
    8.9457    0.2058   24.2112 C   0  0  0  0  0  0  0  0  0  0  0  0
    9.4897   -0.3378   22.8666 C   0  0  2  0  0  0  0  0  0  0  0  0
    8.8429    0.4771   21.7183 C   0  0  0  0  0  0  0  0  0  0  0  0
    9.1139    1.6230   21.4131 O   0  0  0  0  0  0  0  0  0  0  0  0
    7.8765   -0.2952   21.1128 N   0  0  0  0  0  0  0  0  0  0  0  0
    7.0000    0.1819   20.0971 C   0  0  0  0  0  0  0  0  0  0  0  0
    7.2126   -0.1839   18.7915 C   0  0  0  0  0  0  0  0  0  0  0  0
    6.4179    0.1709   17.7509 N   0  0  0  0  0  0  0  0  0  0  0  0
    5.3786    0.9284   18.0047 C   0  0  0  0  0  0  0  0  0  0  0  0
    5.0461    1.3948   19.3099 C   0  0  0  0  0  0  0  0  0  0  0  0
    3.9365    2.2499   19.5372 C   0  0  0  0  0  0  0  0  0  0  0  0
    3.6127    2.6549   20.8017 C   0  0  0  0  0  0  0  0  0  0  0  0
    4.3850    2.2192   21.8995 C   0  0  0  0  0  0  0  0  0  0  0  0
    5.4849    1.4199   21.7067 C   0  0  0  0  0  0  0  0  0  0  0  0
    5.8576    0.9950   20.3996 C   0  0  0  0  0  0  0  0  0  0  0  0
    7.6500   -1.5571   21.7933 C   0  0  0  0  0  0  0  0  0  0  0  0
    8.9916   -1.7631   22.5100 C   0  0  2  0  0  0  0  0  0  0  0  0
    8.9772   -2.7707   23.6627 C   0  0  0  0  0  0  0  0  0  0  0  0
    8.7532   -4.1389   23.2462 N   0  0  0  0  0  0  0  0  0  0  0  0
    7.5040   -4.6683   23.1571 C   0  0  0  0  0  0  0  0  0  0  0  0
    7.2869   -5.9187   22.5466 C   0  0  0  0  0  0  0  0  0  0  0  0
    5.9878   -6.3660   22.5400 C   0  0  0  0  0  0  0  0  0  0  0  0
    4.9654   -5.7155   23.1121 N   0  0  0  0  0  0  0  0  0  0  0  0
    5.2897   -4.5587   23.6708 C   0  0  0  0  0  0  0  0  0  0  0  0
    6.4877   -3.9774   23.6927 N   0  0  0  0  0  0  0  0  0  0  0  0
   10.9966   -0.1704   22.9324 C   0  0  0  0  0  0  0  0  0  0  0  0
   11.9026   -1.1031   22.4202 C   0  0  0  0  0  0  0  0  0  0  0  0
   13.2486   -0.7916   22.3347 C   0  0  0  0  0  0  0  0  0  0  0  0
   14.2991   -1.9020   21.4960 Cl  0  0  0  0  0  0  0  0  0  0  0  0
   13.7652    0.4048   22.8313 C   0  0  0  0  0  0  0  0  0  0  0  0
   12.8885    1.2996   23.4115 C   0  0  0  0  0  0  0  0  0  0  0  0
   11.5278    1.0081   23.4767 C   0  0  0  0  0  0  0  0  0  0  0  0
   10.6408    2.0159   24.1248 C   0  0  0  0  0  0  0  0  0  0  0  0
   11.0046    3.1728   24.3226 O   0  0  0  0  0  0  0  0  0  0  0  0
    6.2240    4.5474   22.6658 H   0  0  0  0  0  0  0  0  0  0  0  0
    7.5551    5.7076   22.5198 H   0  0  0  0  0  0  0  0  0  0  0  0
    7.3955    4.3918   21.3286 H   0  0  0  0  0  0  0  0  0  0  0  0
    8.6763    3.0771   22.6477 H   0  0  0  0  0  0  0  0  0  0  0  0
    7.7613    1.8649   25.6963 H   0  0  0  0  0  0  0  0  0  0  0  0
    9.1373    2.9102   26.0264 H   0  0  0  0  0  0  0  0  0  0  0  0
    7.8496    0.2042   24.1919 H   0  0  0  0  0  0  0  0  0  0  0  0
    9.2819   -0.4515   25.0238 H   0  0  0  0  0  0  0  0  0  0  0  0
    8.0904   -0.7747   18.5316 H   0  0  0  0  0  0  0  0  0  0  0  0
    4.7635    1.2386   17.1582 H   0  0  0  0  0  0  0  0  0  0  0  0
    3.3642    2.5851   18.6793 H   0  0  0  0  0  0  0  0  0  0  0  0
    2.7729    3.3235   20.9679 H   0  0  0  0  0  0  0  0  0  0  0  0
    4.1229    2.5466   22.9019 H   0  0  0  0  0  0  0  0  0  0  0  0
    6.0796    1.1072   22.5602 H   0  0  0  0  0  0  0  0  0  0  0  0
    6.8076   -1.4835   22.4988 H   0  0  0  0  0  0  0  0  0  0  0  0
    7.4016   -2.3475   21.0793 H   0  0  0  0  0  0  0  0  0  0  0  0
    9.6711   -2.1305   21.7359 H   0  0  0  0  0  0  0  0  0  0  0  0
    8.1566   -2.5339   24.3381 H   0  0  0  0  0  0  0  0  0  0  0  0
    9.9124   -2.7084   24.2336 H   0  0  0  0  0  0  0  0  0  0  0  0
    9.5085   -4.6297   22.7946 H   0  0  0  0  0  0  0  0  0  0  0  0
    8.1223   -6.4880   22.1485 H   0  0  0  0  0  0  0  0  0  0  0  0
    5.7358   -7.3037   22.0542 H   0  0  0  0  0  0  0  0  0  0  0  0
    4.4853   -4.0330   24.1842 H   0  0  0  0  0  0  0  0  0  0  0  0
   11.5786   -2.0543   22.0171 H   0  0  0  0  0  0  0  0  0  0  0  0
   14.8206    0.6329   22.7180 H   0  0  0  0  0  0  0  0  0  0  0  0
   13.2276    2.2538   23.8018 H   0  0  0  0  0  0  0  0  0  0  0  0
  1  2  1  0
  2  3  1  0
  3  4  2  0
  3  5  1  0
  5  6  1  0
  6  7  1  0
  8  7  1  1
  8  9  1  0
  9 10  2  0
  9 11  1  0
 11 12  1  0
 12 13  2  0
 13 14  1  0
 14 15  2  0
 15 16  1  0
 16 17  2  0
 17 18  1  0
 18 19  2  0
 19 20  1  0
 20 21  2  0
 11 22  1  0
 22 23  1  0
 23 24  1  0
 24 25  1  0
 25 26  1  0
 26 27  2  0
 27 28  1  0
 28 29  2  0
 29 30  1  0
 30 31  2  0
  8 32  1  0
 32 33  2  0
 33 34  1  0
 34 35  1  0
 34 36  2  0
 36 37  1  0
 37 38  2  0
 38 39  1  0
 39 40  2  0
 39  6  1  0
 23  8  1  0
 31 26  1  0
 38 32  1  0
 21 12  1  0
 21 16  1  0
  1 41  1  0
  1 42  1  0
  1 43  1  0
  2 44  1  0
  5 45  1  0
  5 46  1  0
  7 47  1  0
  7 48  1  0
 13 49  1  0
 15 50  1  0
 17 51  1  0
 18 52  1  0
 19 53  1  0
 20 54  1  0
 22 55  1  0
 22 56  1  0
 23 57  1  6
 24 58  1  0
 24 59  1  0
 25 60  1  0
 27 61  1  0
 28 62  1  0
 30 63  1  0
 33 64  1  0
 36 65  1  0
 37 66  1  0
M  END
$$$$
