
     RDKit          3D

 47 50  0  0  0  0  0  0  0  0999 V2000
    5.2512   -2.0429   21.7441 O   0  0  0  0  0  0  0  0  0  0  0  0
    6.3777   -1.5885   21.8739 C   0  0  0  0  0  0  0  0  0  0  0  0
    6.8549   -0.3838   21.0611 C   0  0  0  0  0  0  0  0  0  0  0  0
    5.9220   -0.1236   19.9375 C   0  0  0  0  0  0  0  0  0  0  0  0
    6.1514   -0.7159   18.7270 C   0  0  0  0  0  0  0  0  0  0  0  0
    5.3549   -0.5890   17.6374 N   0  0  0  0  0  0  0  0  0  0  0  0
    4.2764    0.1445   17.7907 C   0  0  0  0  0  0  0  0  0  0  0  0
    3.9017    0.7920   19.0032 C   0  0  0  0  0  0  0  0  0  0  0  0
    2.7325    1.5853   19.1245 C   0  0  0  0  0  0  0  0  0  0  0  0
    2.3971    2.1567   20.3218 C   0  0  0  0  0  0  0  0  0  0  0  0
    3.2124    1.9662   21.4623 C   0  0  0  0  0  0  0  0  0  0  0  0
    4.3598    1.2192   21.3710 C   0  0  0  0  0  0  0  0  0  0  0  0
    4.7384    0.6325   20.1311 C   0  0  0  0  0  0  0  0  0  0  0  0
    7.2942   -2.1353   22.7220 N   0  0  0  0  0  0  0  0  0  0  0  0
    7.1437   -3.5368   23.0948 C   0  0  0  0  0  0  0  0  0  0  0  0
    7.5342   -3.7533   24.5547 C   0  0  0  0  0  0  0  0  0  0  0  0
    8.8796   -3.1140   24.9284 C   0  0  1  0  0  0  0  0  0  0  0  0
   10.0521   -3.8900   24.3256 C   0  0  0  0  0  0  0  0  0  0  0  0
   11.4131   -3.2749   24.6252 C   0  0  0  0  0  0  0  0  0  0  0  0
   11.4700   -1.8020   24.2848 C   0  0  0  0  0  0  0  0  0  0  0  0
   11.5337   -1.6940   22.9079 F   0  0  0  0  0  0  0  0  0  0  0  0
   12.6394   -1.2553   24.7423 F   0  0  0  0  0  0  0  0  0  0  0  0
   10.2882   -0.9983   24.8100 C   0  0  0  0  0  0  0  0  0  0  0  0
    8.9347   -1.6463   24.4666 C   0  0  1  0  0  0  0  0  0  0  0  0
    8.6083   -1.5655   22.9711 C   0  0  0  0  0  0  0  0  0  0  0  0
    6.9571    0.4905   21.7151 H   0  0  0  0  0  0  0  0  0  0  0  0
    7.8475   -0.6169   20.6547 H   0  0  0  0  0  0  0  0  0  0  0  0
    7.0331   -1.3458   18.6032 H   0  0  0  0  0  0  0  0  0  0  0  0
    3.6267    0.2419   16.9206 H   0  0  0  0  0  0  0  0  0  0  0  0
    2.1192    1.7426   18.2410 H   0  0  0  0  0  0  0  0  0  0  0  0
    1.4992    2.7629   20.4045 H   0  0  0  0  0  0  0  0  0  0  0  0
    2.9336    2.4231   22.4095 H   0  0  0  0  0  0  0  0  0  0  0  0
    4.9719    1.0640   22.2566 H   0  0  0  0  0  0  0  0  0  0  0  0
    7.7516   -4.1675   22.4252 H   0  0  0  0  0  0  0  0  0  0  0  0
    6.1029   -3.8223   22.9248 H   0  0  0  0  0  0  0  0  0  0  0  0
    6.7498   -3.3256   25.1853 H   0  0  0  0  0  0  0  0  0  0  0  0
    7.5633   -4.8290   24.7693 H   0  0  0  0  0  0  0  0  0  0  0  0
    8.9841   -3.1293   26.0275 H   0  0  0  0  0  0  0  0  0  0  0  0
   10.0443   -4.9111   24.7116 H   0  0  0  0  0  0  0  0  0  0  0  0
    9.9608   -3.9469   23.2355 H   0  0  0  0  0  0  0  0  0  0  0  0
   11.6841   -3.4028   25.6731 H   0  0  0  0  0  0  0  0  0  0  0  0
   12.1661   -3.7838   24.0324 H   0  0  0  0  0  0  0  0  0  0  0  0
   10.3846   -0.9218   25.9018 H   0  0  0  0  0  0  0  0  0  0  0  0
   10.3545    0.0214   24.4114 H   0  0  0  0  0  0  0  0  0  0  0  0
    8.1538   -1.0871   24.9956 H   0  0  0  0  0  0  0  0  0  0  0  0
    8.6383   -0.5182   22.6615 H   0  0  0  0  0  0  0  0  0  0  0  0
    9.3655   -2.0907   22.3784 H   0  0  0  0  0  0  0  0  0  0  0  0
  1  2  2  0
  2  3  1  0
  3  4  1  0
  4  5  2  0
  5  6  1  0
  6  7  2  0
  7  8  1  0
  8  9  2  0
  9 10  1  0
 10 11  2  0
 11 12  1  0
 12 13  2  0
  2 14  1  0
 14 15  1  0
 15 16  1  0
 16 17  1  0
 17 18  1  0
 18 19  1  0
 19 20  1  0
 20 21  1  0
 20 22  1  0
 20 23  1  0
 23 24  1  0
 24 25  1  0
 13  4  1  0
 25 14  1  0
 13  8  1  0
 24 17  1  0
  3 26  1  0
  3 27  1  0
  5 28  1  0
  7 29  1  0
  9 30  1  0
 10 31  1  0
 11 32  1  0
 12 33  1  0
 15 34  1  0
 15 35  1  0
 16 36  1  0
 16 37  1  0
 17 38  1  1
 18 39  1  0
 18 40  1  0
 19 41  1  0
 19 42  1  0
 23 43  1  0
 23 44  1  0
 24 45  1  1
 25 46  1  0
 25 47  1  0
M  END
$$$$
