
     RDKit          3D

 67 72  0  0  0  0  0  0  0  0999 V2000
    7.0580    4.9617   27.3147 C   0  0  0  0  0  0  0  0  0  0  0  0
    7.2303    4.8529   25.8730 N   0  0  0  0  0  0  0  0  0  0  0  0
    6.5545    3.8929   25.1701 C   0  0  0  0  0  0  0  0  0  0  0  0
    5.8202    3.0814   25.7014 O   0  0  0  0  0  0  0  0  0  0  0  0
    6.7973    3.8119   23.6645 C   0  0  0  0  0  0  0  0  0  0  0  0
    7.9478    2.9291   23.3767 N   0  0  0  0  0  0  0  0  0  0  0  0
    7.8381    1.4510   23.5137 C   0  0  0  0  0  0  0  0  0  0  0  0
    8.4718    0.6414   22.3052 C   0  0  2  0  0  0  0  0  0  0  0  0
    7.5822    0.9359   21.1054 C   0  0  0  0  0  0  0  0  0  0  0  0
    7.4915    1.9692   20.4812 O   0  0  0  0  0  0  0  0  0  0  0  0
    6.8418   -0.1988   20.8731 N   0  0  0  0  0  0  0  0  0  0  0  0
    5.8372   -0.1720   19.9045 C   0  0  0  0  0  0  0  0  0  0  0  0
    6.0281   -0.8330   18.7246 C   0  0  0  0  0  0  0  0  0  0  0  0
    5.2201   -0.7008   17.6520 N   0  0  0  0  0  0  0  0  0  0  0  0
    4.1641    0.0695   17.7987 C   0  0  0  0  0  0  0  0  0  0  0  0
    3.8083    0.7271   19.0107 C   0  0  0  0  0  0  0  0  0  0  0  0
    2.6179    1.4839   19.1449 C   0  0  0  0  0  0  0  0  0  0  0  0
    2.2997    2.0897   20.3265 C   0  0  0  0  0  0  0  0  0  0  0  0
    3.1781    2.0088   21.4285 C   0  0  0  0  0  0  0  0  0  0  0  0
    4.3431    1.2949   21.3278 C   0  0  0  0  0  0  0  0  0  0  0  0
    4.6767    0.6224   20.1136 C   0  0  0  0  0  0  0  0  0  0  0  0
    7.1501   -1.3269   21.7184 C   0  0  0  0  0  0  0  0  0  0  0  0
    8.4045   -0.8888   22.4633 C   0  0  2  0  0  0  0  0  0  0  0  0
    8.5096   -1.4422   23.8850 C   0  0  0  0  0  0  0  0  0  0  0  0
    9.7164   -1.0434   24.5644 N   0  0  0  0  0  0  0  0  0  0  0  0
   10.9440   -1.3562   24.0900 C   0  0  0  0  0  0  0  0  0  0  0  0
   11.2805   -2.3532   23.2100 C   0  0  0  0  0  0  0  0  0  0  0  0
   12.5967   -2.4427   22.8470 N   0  0  0  0  0  0  0  0  0  0  0  0
   13.2151   -1.4992   23.4530 C   0  0  0  0  0  0  0  0  0  0  0  0
   14.5779   -1.1813   23.4302 C   0  0  0  0  0  0  0  0  0  0  0  0
   12.3261   -0.4578   24.5755 S   0  0  0  0  0  0  0  0  0  0  0  0
    9.8753    1.0002   22.0661 C   0  0  0  0  0  0  0  0  0  0  0  0
   10.9199    0.3693   21.4684 C   0  0  0  0  0  0  0  0  0  0  0  0
   12.1708    0.9206   21.5187 C   0  0  0  0  0  0  0  0  0  0  0  0
   10.2182    2.3954   22.6138 Cl  0  0  0  0  0  0  0  0  0  0  0  0
   12.5654    2.2871   21.6212 C   0  0  0  0  0  0  0  0  0  0  0  0
   11.6746    3.1043   22.2039 C   0  0  0  0  0  0  0  0  0  0  0  0
   10.2181    2.3954   22.6138 C   0  0  0  0  0  0  0  0  0  0  0  0
    9.2265    3.4757   23.2115 C   0  0  0  0  0  0  0  0  0  0  0  0
    9.4636    4.6309   23.4661 O   0  0  0  0  0  0  0  0  0  0  0  0
    6.0127    5.1500   27.5737 H   0  0  0  0  0  0  0  0  0  0  0  0
    7.6653    5.7821   27.7127 H   0  0  0  0  0  0  0  0  0  0  0  0
    7.3538    4.0349   27.8133 H   0  0  0  0  0  0  0  0  0  0  0  0
    7.8607    5.5013   25.4186 H   0  0  0  0  0  0  0  0  0  0  0  0
    5.9303    3.3689   23.1615 H   0  0  0  0  0  0  0  0  0  0  0  0
    6.9947    4.7914   23.2141 H   0  0  0  0  0  0  0  0  0  0  0  0
    8.3825    1.1700   24.4163 H   0  0  0  0  0  0  0  0  0  0  0  0
    6.7803    1.1658   23.6452 H   0  0  0  0  0  0  0  0  0  0  0  0
    6.9124   -1.4599   18.6073 H   0  0  0  0  0  0  0  0  0  0  0  0
    3.5093    0.1844   16.9359 H   0  0  0  0  0  0  0  0  0  0  0  0
    1.9652    1.5866   18.2901 H   0  0  0  0  0  0  0  0  0  0  0  0
    1.3683    2.6391   20.4200 H   0  0  0  0  0  0  0  0  0  0  0  0
    2.9267    2.5149   22.3557 H   0  0  0  0  0  0  0  0  0  0  0  0
    5.0079    1.2402   22.1857 H   0  0  0  0  0  0  0  0  0  0  0  0
    6.3202   -1.5331   22.4026 H   0  0  0  0  0  0  0  0  0  0  0  0
    7.3488   -2.2070   21.1033 H   0  0  0  0  0  0  0  0  0  0  0  0
    9.2515   -1.2972   21.9074 H   0  0  0  0  0  0  0  0  0  0  0  0
    7.6476   -1.1180   24.4778 H   0  0  0  0  0  0  0  0  0  0  0  0
    8.4617   -2.5341   23.8301 H   0  0  0  0  0  0  0  0  0  0  0  0
    9.6694   -0.4757   25.3935 H   0  0  0  0  0  0  0  0  0  0  0  0
   10.6404   -3.0645   22.7468 H   0  0  0  0  0  0  0  0  0  0  0  0
   14.7921   -0.3578   22.6582 H   0  0  0  0  0  0  0  0  0  0  0  0
   14.7735   -0.9317   24.4333 H   0  0  0  0  0  0  0  0  0  0  0  0
   15.2178   -2.0910   23.2929 H   0  0  0  0  0  0  0  0  0  0  0  0
   10.5621   -0.3440   20.7089 H   0  0  0  0  0  0  0  0  0  0  0  0
   13.5530    2.7365   21.3798 H   0  0  0  0  0  0  0  0  0  0  0  0
   11.9063    4.1030   22.6809 H   0  0  0  0  0  0  0  0  0  0  0  0
  1  2  1  0
  2  3  1  0
  3  4  2  0
  3  5  1  0
  5  6  1  0
  6  7  1  0
  8  7  1  1
  8  9  1  0
  9 10  2  0
  9 11  1  0
 11 12  1  0
 12 13  2  0
 13 14  1  0
 14 15  2  0
 15 16  1  0
 16 17  2  0
 17 18  1  0
 18 19  2  0
 19 20  1  0
 20 21  2  0
 11 22  1  0
 22 23  1  0
 23 24  1  0
 24 25  1  0
 25 26  1  0
 26 27  2  0
 27 28  1  0
 28 29  2  0
 29 30  1  0
 29 31  1  0
  8 32  1  0
 32 33  2  0
 33 34  1  0
 34 35  1  0
 34 36  2  0
 36 37  1  0
 37 38  2  0
 38 39  1  0
 39 40  2  0
 39  6  1  0
 23  8  1  0
 31 26  1  0
 38 32  1  0
 21 12  1  0
 21 16  1  0
  1 41  1  0
  1 42  1  0
  1 43  1  0
  2 44  1  0
  5 45  1  0
  5 46  1  0
  7 47  1  0
  7 48  1  0
 13 49  1  0
 15 50  1  0
 17 51  1  0
 18 52  1  0
 19 53  1  0
 20 54  1  0
 22 55  1  0
 22 56  1  0
 23 57  1  6
 24 58  1  0
 24 59  1  0
 25 60  1  0
 27 61  1  0
 30 62  1  0
 30 63  1  0
 30 64  1  0
 33 65  1  0
 36 66  1  0
 37 67  1  0
M  END
$$$$
