
     RDKit          3D

 67 72  0  0  0  0  0  0  0  0999 V2000
    7.1531    5.1881   27.1496 C   0  0  0  0  0  0  0  0  0  0  0  0
    7.3317    4.9013   25.7408 N   0  0  0  0  0  0  0  0  0  0  0  0
    6.6066    3.9037   25.1740 C   0  0  0  0  0  0  0  0  0  0  0  0
    5.8620    3.1807   25.8166 O   0  0  0  0  0  0  0  0  0  0  0  0
    6.7783    3.7541   23.6578 C   0  0  0  0  0  0  0  0  0  0  0  0
    7.9127    2.9322   23.2981 N   0  0  0  0  0  0  0  0  0  0  0  0
    7.8389    1.4959   23.5109 C   0  0  0  0  0  0  0  0  0  0  0  0
    8.5193    0.7362   22.3459 C   0  0  2  0  0  0  0  0  0  0  0  0
    7.6957    0.9795   21.0645 C   0  0  0  0  0  0  0  0  0  0  0  0
    7.6382    1.9785   20.3835 O   0  0  0  0  0  0  0  0  0  0  0  0
    6.9519   -0.1506   20.8088 N   0  0  0  0  0  0  0  0  0  0  0  0
    5.9254   -0.1087   19.8451 C   0  0  0  0  0  0  0  0  0  0  0  0
    6.0867   -0.7746   18.6617 C   0  0  0  0  0  0  0  0  0  0  0  0
    5.2512   -0.6596   17.6046 N   0  0  0  0  0  0  0  0  0  0  0  0
    4.1981    0.1115   17.7556 C   0  0  0  0  0  0  0  0  0  0  0  0
    3.8684    0.7868   18.9655 C   0  0  0  0  0  0  0  0  0  0  0  0
    2.6908    1.5684   19.0970 C   0  0  0  0  0  0  0  0  0  0  0  0
    2.3593    2.1385   20.2948 C   0  0  0  0  0  0  0  0  0  0  0  0
    3.2026    1.9758   21.4162 C   0  0  0  0  0  0  0  0  0  0  0  0
    4.3681    1.2592   21.3060 C   0  0  0  0  0  0  0  0  0  0  0  0
    4.7392    0.6566   20.0675 C   0  0  0  0  0  0  0  0  0  0  0  0
    7.1835   -1.2587   21.7027 C   0  0  0  0  0  0  0  0  0  0  0  0
    8.4208   -0.8154   22.4970 C   0  0  2  0  0  0  0  0  0  0  0  0
    8.4119   -1.3325   23.9343 C   0  0  0  0  0  0  0  0  0  0  0  0
    9.5421   -0.8754   24.6509 O   0  0  0  0  0  0  0  0  0  0  0  0
   10.6498   -1.7395   24.5522 C   0  0  0  0  0  0  0  0  0  0  0  0
   10.5999   -2.8393   25.5810 C   0  0  0  0  0  0  0  0  0  0  0  0
   10.0924   -4.2046   25.2004 C   0  0  0  0  0  0  0  0  0  0  0  0
   11.5640   -3.9525   25.3575 C   0  0  0  0  0  0  0  0  0  0  0  0
    9.9344    1.3018   22.2760 C   0  0  0  0  0  0  0  0  0  0  0  0
   11.0549    0.4975   22.0212 C   0  0  0  0  0  0  0  0  0  0  0  0
   12.3165    1.0680   21.8943 C   0  0  0  0  0  0  0  0  0  0  0  0
   13.6814    0.0185   21.6154 Cl  0  0  0  0  0  0  0  0  0  0  0  0
   12.5120    2.4493   21.9474 C   0  0  0  0  0  0  0  0  0  0  0  0
   11.4176    3.2413   22.2187 C   0  0  0  0  0  0  0  0  0  0  0  0
   10.1706    2.6749   22.4836 C   0  0  0  0  0  0  0  0  0  0  0  0
    9.1021    3.5563   23.0534 C   0  0  0  0  0  0  0  0  0  0  0  0
    9.2737    4.7491   23.2988 O   0  0  0  0  0  0  0  0  0  0  0  0
    7.9195    5.8935   27.4780 H   0  0  0  0  0  0  0  0  0  0  0  0
    6.1654    5.6221   27.3376 H   0  0  0  0  0  0  0  0  0  0  0  0
    7.2173    4.2676   27.7366 H   0  0  0  0  0  0  0  0  0  0  0  0
    8.0718    5.3391   25.2088 H   0  0  0  0  0  0  0  0  0  0  0  0
    6.9326    4.7310   23.1919 H   0  0  0  0  0  0  0  0  0  0  0  0
    5.8642    3.3032   23.2583 H   0  0  0  0  0  0  0  0  0  0  0  0
    8.3600    1.2131   24.4349 H   0  0  0  0  0  0  0  0  0  0  0  0
    6.7855    1.2123   23.5961 H   0  0  0  0  0  0  0  0  0  0  0  0
    6.9530   -1.4214   18.5245 H   0  0  0  0  0  0  0  0  0  0  0  0
    3.5263    0.2060   16.9017 H   0  0  0  0  0  0  0  0  0  0  0  0
    2.0655    1.7108   18.2225 H   0  0  0  0  0  0  0  0  0  0  0  0
    1.4450    2.7175   20.3924 H   0  0  0  0  0  0  0  0  0  0  0  0
    2.9291    2.4300   22.3652 H   0  0  0  0  0  0  0  0  0  0  0  0
    5.0127    1.1479   22.1739 H   0  0  0  0  0  0  0  0  0  0  0  0
    7.3484   -2.1746   21.1256 H   0  0  0  0  0  0  0  0  0  0  0  0
    6.3191   -1.4416   22.3563 H   0  0  0  0  0  0  0  0  0  0  0  0
    9.2907   -1.2312   21.9834 H   0  0  0  0  0  0  0  0  0  0  0  0
    8.3525   -2.4298   23.9566 H   0  0  0  0  0  0  0  0  0  0  0  0
    7.5315   -0.9513   24.4641 H   0  0  0  0  0  0  0  0  0  0  0  0
   11.5455   -1.1174   24.6858 H   0  0  0  0  0  0  0  0  0  0  0  0
   10.7206   -2.1921   23.5422 H   0  0  0  0  0  0  0  0  0  0  0  0
   10.4205   -2.5147   26.6012 H   0  0  0  0  0  0  0  0  0  0  0  0
    9.7050   -4.3595   24.1946 H   0  0  0  0  0  0  0  0  0  0  0  0
    9.5943   -4.7916   25.9657 H   0  0  0  0  0  0  0  0  0  0  0  0
   12.0992   -4.3911   26.1957 H   0  0  0  0  0  0  0  0  0  0  0  0
   12.1366   -3.8444   24.4412 H   0  0  0  0  0  0  0  0  0  0  0  0
   10.9748   -0.5775   21.9278 H   0  0  0  0  0  0  0  0  0  0  0  0
   13.4938    2.8997   21.8210 H   0  0  0  0  0  0  0  0  0  0  0  0
   11.5104    4.3238   22.2589 H   0  0  0  0  0  0  0  0  0  0  0  0
  1  2  1  0
  2  3  1  0
  3  4  2  0
  3  5  1  0
  5  6  1  0
  6  7  1  0
  8  7  1  1
  8  9  1  0
  9 10  2  0
  9 11  1  0
 11 12  1  0
 12 13  2  0
 13 14  1  0
 14 15  2  0
 15 16  1  0
 16 17  2  0
 17 18  1  0
 18 19  2  0
 19 20  1  0
 20 21  2  0
 11 22  1  0
 22 23  1  0
 23 24  1  0
 24 25  1  0
 25 26  1  0
 26 27  1  0
 27 28  1  0
 28 29  1  0
  8 30  1  0
 30 31  2  0
 31 32  1  0
 32 33  1  0
 32 34  2  0
 34 35  1  0
 35 36  2  0
 36 37  1  0
 37 38  2  0
 37  6  1  0
 23  8  1  0
 29 27  1  0
 36 30  1  0
 21 12  1  0
 21 16  1  0
  1 39  1  0
  1 40  1  0
  1 41  1  0
  2 42  1  0
  5 43  1  0
  5 44  1  0
  7 45  1  0
  7 46  1  0
 13 47  1  0
 15 48  1  0
 17 49  1  0
 18 50  1  0
 19 51  1  0
 20 52  1  0
 22 53  1  0
 22 54  1  0
 23 55  1  6
 24 56  1  0
 24 57  1  0
 26 58  1  0
 26 59  1  0
 27 60  1  0
 28 61  1  0
 28 62  1  0
 29 63  1  0
 29 64  1  0
 31 65  1  0
 34 66  1  0
 35 67  1  0
M  END
$$$$
