
     RDKit          3D

 40 42  0  0  0  0  0  0  0  0999 V2000
    7.0542   -1.9737   23.3797 O   0  0  0  0  0  0  0  0  0  0  0  0
    8.1728   -2.4249   23.5168 C   0  0  0  0  0  0  0  0  0  0  0  0
    9.3345   -2.0049   22.6154 C   0  0  0  0  0  0  0  0  0  0  0  0
    9.8815   -0.7155   23.2174 C   0  0  0  0  0  0  0  0  0  0  0  0
    9.0000    0.1757   23.7873 C   0  0  0  0  0  0  0  0  0  0  0  0
    9.3012    1.4124   24.2517 N   0  0  0  0  0  0  0  0  0  0  0  0
   10.5504    1.7876   24.1520 C   0  0  0  0  0  0  0  0  0  0  0  0
   11.5803    0.9670   23.6194 C   0  0  0  0  0  0  0  0  0  0  0  0
   12.9003    1.4550   23.4993 C   0  0  0  0  0  0  0  0  0  0  0  0
   13.8922    0.6603   22.9856 C   0  0  0  0  0  0  0  0  0  0  0  0
   13.5843   -0.6590   22.5794 C   0  0  0  0  0  0  0  0  0  0  0  0
   12.3072   -1.1468   22.6704 C   0  0  0  0  0  0  0  0  0  0  0  0
   11.2529   -0.3341   23.1681 C   0  0  0  0  0  0  0  0  0  0  0  0
    8.5232   -3.1742   24.6295 N   0  0  0  0  0  0  0  0  0  0  0  0
    7.9199   -2.7832   25.9016 C   0  0  0  0  0  0  0  0  0  0  0  0
    8.9831   -2.9196   26.9899 C   0  0  0  0  0  0  0  0  0  0  0  0
    9.5466   -4.3423   27.0565 C   0  0  0  0  0  0  0  0  0  0  0  0
    8.5444   -5.3352   27.6431 C   0  0  0  0  0  0  0  0  0  0  0  0
    7.4747   -5.5402   26.8429 F   0  0  0  0  0  0  0  0  0  0  0  0
    8.0611   -4.9089   28.8276 F   0  0  0  0  0  0  0  0  0  0  0  0
    9.0962   -6.5447   27.8588 F   0  0  0  0  0  0  0  0  0  0  0  0
   10.0870   -4.7609   25.6842 C   0  0  0  0  0  0  0  0  0  0  0  0
    9.1104   -4.5018   24.5367 C   0  0  0  0  0  0  0  0  0  0  0  0
    8.9311   -1.8434   21.6066 H   0  0  0  0  0  0  0  0  0  0  0  0
   10.1034   -2.7823   22.5521 H   0  0  0  0  0  0  0  0  0  0  0  0
    7.9589   -0.1002   23.8684 H   0  0  0  0  0  0  0  0  0  0  0  0
   10.8032    2.7903   24.4879 H   0  0  0  0  0  0  0  0  0  0  0  0
   13.1092    2.4585   23.8594 H   0  0  0  0  0  0  0  0  0  0  0  0
   14.8975    1.0515   22.8552 H   0  0  0  0  0  0  0  0  0  0  0  0
   14.3635   -1.2856   22.1493 H   0  0  0  0  0  0  0  0  0  0  0  0
   12.0903   -2.1613   22.3403 H   0  0  0  0  0  0  0  0  0  0  0  0
    7.0243   -3.3718   26.1265 H   0  0  0  0  0  0  0  0  0  0  0  0
    7.5998   -1.7387   25.8004 H   0  0  0  0  0  0  0  0  0  0  0  0
    8.5883   -2.6247   27.9663 H   0  0  0  0  0  0  0  0  0  0  0  0
    9.8034   -2.2331   26.7397 H   0  0  0  0  0  0  0  0  0  0  0  0
   10.3741   -4.3663   27.7776 H   0  0  0  0  0  0  0  0  0  0  0  0
   10.9967   -4.1830   25.4847 H   0  0  0  0  0  0  0  0  0  0  0  0
   10.3678   -5.8189   25.7064 H   0  0  0  0  0  0  0  0  0  0  0  0
    9.6408   -4.5600   23.5819 H   0  0  0  0  0  0  0  0  0  0  0  0
    8.3298   -5.2752   24.5194 H   0  0  0  0  0  0  0  0  0  0  0  0
  1  2  2  0
  2  3  1  0
  3  4  1  0
  4  5  2  0
  5  6  1  0
  6  7  2  0
  7  8  1  0
  8  9  2  0
  9 10  1  0
 10 11  2  0
 11 12  1  0
 12 13  2  0
  2 14  1  0
 14 15  1  0
 15 16  1  0
 16 17  1  0
 17 18  1  0
 18 19  1  0
 18 20  1  0
 18 21  1  0
 17 22  1  0
 22 23  1  0
 13  4  1  0
 23 14  1  0
 13  8  1  0
  3 24  1  0
  3 25  1  0
  5 26  1  0
  7 27  1  0
  9 28  1  0
 10 29  1  0
 11 30  1  0
 12 31  1  0
 15 32  1  0
 15 33  1  0
 16 34  1  0
 16 35  1  0
 17 36  1  0
 22 37  1  0
 22 38  1  0
 23 39  1  0
 23 40  1  0
M  END
$$$$
