
     RDKit          3D

 38 41  0  0  0  0  0  0  0  0999 V2000
   -9.5563   -4.7675  -25.8548 C   0  0  0  0  0  0  0  0  0  0  0  0
   -9.5841   -3.8313  -24.6419 C   0  0  2  0  0  0  0  0  0  0  0  0
   -9.9156   -2.3929  -25.0772 C   0  0  0  0  0  0  0  0  0  0  0  0
  -10.0664   -1.4683  -23.8540 C   0  0  0  0  0  0  0  0  0  0  0  0
   -8.9737   -1.7075  -22.8482 C   0  0  0  0  0  0  0  0  0  0  0  0
   -8.5611   -0.9610  -21.7681 C   0  0  0  0  0  0  0  0  0  0  0  0
   -9.0423    0.1492  -21.4059 O   0  0  0  0  0  0  0  0  0  0  0  0
   -7.5104   -1.6121  -21.1257 N   0  0  0  0  0  0  0  0  0  0  0  0
   -6.6984   -1.0732  -20.0986 C   0  0  0  0  0  0  0  0  0  0  0  0
   -6.9762   -1.3348  -18.7365 C   0  0  0  0  0  0  0  0  0  0  0  0
   -6.2584   -0.8358  -17.7054 N   0  0  0  0  0  0  0  0  0  0  0  0
   -5.2549    0.0138  -18.0003 C   0  0  0  0  0  0  0  0  0  0  0  0
   -4.9150    0.3666  -19.3182 C   0  0  0  0  0  0  0  0  0  0  0  0
   -3.9290    1.3310  -19.5847 C   0  0  0  0  0  0  0  0  0  0  0  0
   -3.5950    1.6614  -20.8972 C   0  0  0  0  0  0  0  0  0  0  0  0
   -4.2108    1.0022  -21.9617 C   0  0  0  0  0  0  0  0  0  0  0  0
   -5.2244    0.0677  -21.7070 C   0  0  0  0  0  0  0  0  0  0  0  0
   -5.6108   -0.2275  -20.3890 C   0  0  0  0  0  0  0  0  0  0  0  0
   -7.2467   -2.7607  -21.8516 C   0  0  0  0  0  0  0  0  0  0  0  0
   -6.4014   -3.6060  -21.5790 O   0  0  0  0  0  0  0  0  0  0  0  0
   -8.1589   -2.8354  -22.8912 N   0  0  0  0  0  0  0  0  0  0  0  0
   -8.2230   -3.8593  -23.9248 C   0  0  0  0  0  0  0  0  0  0  0  0
   -9.3177   -5.7875  -25.5333 H   0  0  0  0  0  0  0  0  0  0  0  0
   -8.7996   -4.4410  -26.5783 H   0  0  0  0  0  0  0  0  0  0  0  0
  -10.5341   -4.7763  -26.3490 H   0  0  0  0  0  0  0  0  0  0  0  0
  -10.3601   -4.1696  -23.9443 H   0  0  0  0  0  0  0  0  0  0  0  0
  -10.8591   -2.3912  -25.6340 H   0  0  0  0  0  0  0  0  0  0  0  0
   -9.1210   -2.0186  -25.7379 H   0  0  0  0  0  0  0  0  0  0  0  0
  -10.0353   -0.4197  -24.1685 H   0  0  0  0  0  0  0  0  0  0  0  0
  -11.0333   -1.6701  -23.3747 H   0  0  0  0  0  0  0  0  0  0  0  0
   -7.8504   -1.9461  -18.5206 H   0  0  0  0  0  0  0  0  0  0  0  0
   -4.7679    0.5273  -17.1783 H   0  0  0  0  0  0  0  0  0  0  0  0
   -3.4385    1.8587  -18.7771 H   0  0  0  0  0  0  0  0  0  0  0  0
   -2.8620    2.4431  -21.0762 H   0  0  0  0  0  0  0  0  0  0  0  0
   -3.8964    1.2279  -22.9772 H   0  0  0  0  0  0  0  0  0  0  0  0
   -5.7351   -0.4244  -22.5281 H   0  0  0  0  0  0  0  0  0  0  0  0
   -7.4237   -3.6788  -24.6534 H   0  0  0  0  0  0  0  0  0  0  0  0
   -8.0833   -4.8477  -23.4745 H   0  0  0  0  0  0  0  0  0  0  0  0
  1  2  1  0
  2  3  1  0
  3  4  1  0
  4  5  1  0
  5  6  2  0
  6  7  1  0
  6  8  1  0
  8  9  1  0
  9 10  2  0
 10 11  1  0
 11 12  2  0
 12 13  1  0
 13 14  2  0
 14 15  1  0
 15 16  2  0
 16 17  1  0
 17 18  2  0
  8 19  1  0
 19 20  2  0
 19 21  1  0
 21 22  1  0
 22  2  1  0
 21  5  1  0
 18  9  1  0
 18 13  1  0
  1 23  1  0
  1 24  1  0
  1 25  1  0
  2 26  1  1
  3 27  1  0
  3 28  1  0
  4 29  1  0
  4 30  1  0
 10 31  1  0
 12 32  1  0
 14 33  1  0
 15 34  1  0
 16 35  1  0
 17 36  1  0
 22 37  1  0
 22 38  1  0
M  CHG  1   7  -1
M  END
