
     RDKit          3D

 38 41  0  0  0  0  0  0  0  0999 V2000
   -9.7206   -4.6489  -25.5862 C   0  0  0  0  0  0  0  0  0  0  0  0
   -9.8111   -3.6569  -24.4217 C   0  0  2  0  0  0  0  0  0  0  0  0
  -10.1823   -2.2542  -24.9345 C   0  0  0  0  0  0  0  0  0  0  0  0
  -10.3955   -1.2778  -23.7619 C   0  0  0  0  0  0  0  0  0  0  0  0
   -9.3200   -1.4283  -22.7209 C   0  0  0  0  0  0  0  0  0  0  0  0
   -8.9605   -0.6160  -21.6697 C   0  0  0  0  0  0  0  0  0  0  0  0
   -9.4893    0.4921  -21.3734 O   0  0  0  0  0  0  0  0  0  0  0  0
   -7.9036   -1.1967  -20.9724 N   0  0  0  0  0  0  0  0  0  0  0  0
   -7.1364   -0.5797  -19.9548 C   0  0  0  0  0  0  0  0  0  0  0  0
   -7.4381   -0.7853  -18.5882 C   0  0  0  0  0  0  0  0  0  0  0  0
   -6.7638   -0.2113  -17.5667 N   0  0  0  0  0  0  0  0  0  0  0  0
   -5.7839    0.6590  -17.8801 C   0  0  0  0  0  0  0  0  0  0  0  0
   -5.4245    0.9600  -19.2056 C   0  0  0  0  0  0  0  0  0  0  0  0
   -4.4669    1.9457  -19.4967 C   0  0  0  0  0  0  0  0  0  0  0  0
   -4.1127    2.2243  -20.8159 C   0  0  0  0  0  0  0  0  0  0  0  0
   -4.6787    1.4926  -21.8605 C   0  0  0  0  0  0  0  0  0  0  0  0
   -5.6646    0.5352  -21.5833 C   0  0  0  0  0  0  0  0  0  0  0  0
   -6.0725    0.2900  -20.2615 C   0  0  0  0  0  0  0  0  0  0  0  0
   -7.5818   -2.3686  -21.6349 C   0  0  0  0  0  0  0  0  0  0  0  0
   -6.7142   -3.1685  -21.3020 O   0  0  0  0  0  0  0  0  0  0  0  0
   -8.4651   -2.5265  -22.6900 N   0  0  0  0  0  0  0  0  0  0  0  0
   -8.4678   -3.6007  -23.6733 C   0  0  0  0  0  0  0  0  0  0  0  0
   -9.4542   -5.6428  -25.2097 H   0  0  0  0  0  0  0  0  0  0  0  0
   -8.9584   -4.3303  -26.3075 H   0  0  0  0  0  0  0  0  0  0  0  0
  -10.6851   -4.7171  -26.1015 H   0  0  0  0  0  0  0  0  0  0  0  0
  -10.5915   -3.9892  -23.7261 H   0  0  0  0  0  0  0  0  0  0  0  0
  -11.1114   -2.3137  -25.5120 H   0  0  0  0  0  0  0  0  0  0  0  0
   -9.3855   -1.8835  -25.5945 H   0  0  0  0  0  0  0  0  0  0  0  0
  -10.3937   -0.2451  -24.1266 H   0  0  0  0  0  0  0  0  0  0  0  0
  -11.3661   -1.4913  -23.2953 H   0  0  0  0  0  0  0  0  0  0  0  0
   -8.2952   -1.4168  -18.3624 H   0  0  0  0  0  0  0  0  0  0  0  0
   -5.3356    1.2290  -17.0734 H   0  0  0  0  0  0  0  0  0  0  0  0
   -4.0152    2.5292  -18.7050 H   0  0  0  0  0  0  0  0  0  0  0  0
   -3.4036    3.0226  -21.0163 H   0  0  0  0  0  0  0  0  0  0  0  0
   -4.3477    1.6803  -22.8784 H   0  0  0  0  0  0  0  0  0  0  0  0
   -6.1374   -0.0142  -22.3907 H   0  0  0  0  0  0  0  0  0  0  0  0
   -7.6578   -3.4266  -24.3915 H   0  0  0  0  0  0  0  0  0  0  0  0
   -8.3044   -4.5605  -23.1720 H   0  0  0  0  0  0  0  0  0  0  0  0
  1  2  1  0
  2  3  1  0
  3  4  1  0
  4  5  1  0
  5  6  2  0
  6  7  1  0
  6  8  1  0
  8  9  1  0
  9 10  2  0
 10 11  1  0
 11 12  2  0
 12 13  1  0
 13 14  2  0
 14 15  1  0
 15 16  2  0
 16 17  1  0
 17 18  2  0
  8 19  1  0
 19 20  2  0
 19 21  1  0
 21 22  1  0
 22  2  1  0
 21  5  1  0
 18  9  1  0
 18 13  1  0
  1 23  1  0
  1 24  1  0
  1 25  1  0
  2 26  1  1
  3 27  1  0
  3 28  1  0
  4 29  1  0
  4 30  1  0
 10 31  1  0
 12 32  1  0
 14 33  1  0
 15 34  1  0
 16 35  1  0
 17 36  1  0
 22 37  1  0
 22 38  1  0
M  CHG  1   7  -1
M  END
$$$$
