
     RDKit          3D

 47 50  0  0  0  0  0  0  0  0999 V2000
    7.8569    1.6882   20.3088 O   0  0  0  0  0  0  0  0  0  0  0  0
    7.7529    0.8898   21.2167 C   0  0  0  0  0  0  0  0  0  0  0  0
    6.8583   -0.3558   21.0688 C   0  0  0  0  0  0  0  0  0  0  0  0
    5.8579   -0.1981   19.9587 C   0  0  0  0  0  0  0  0  0  0  0  0
    6.0453   -0.8049   18.7452 C   0  0  0  0  0  0  0  0  0  0  0  0
    5.2363   -0.6718   17.6599 N   0  0  0  0  0  0  0  0  0  0  0  0
    4.1689    0.0781   17.8028 C   0  0  0  0  0  0  0  0  0  0  0  0
    3.8202    0.7320   19.0181 C   0  0  0  0  0  0  0  0  0  0  0  0
    2.6266    1.4827   19.1486 C   0  0  0  0  0  0  0  0  0  0  0  0
    2.3023    2.0942   20.3257 C   0  0  0  0  0  0  0  0  0  0  0  0
    3.1891    2.0022   21.4237 C   0  0  0  0  0  0  0  0  0  0  0  0
    4.3613    1.2923   21.3310 C   0  0  0  0  0  0  0  0  0  0  0  0
    4.6969    0.6138   20.1252 C   0  0  0  0  0  0  0  0  0  0  0  0
    8.4943    1.0619   22.3802 N   0  0  0  0  0  0  0  0  0  0  0  0
    9.5066    2.0553   22.2855 C   0  0  0  0  0  0  0  0  0  0  0  0
   10.7970    1.7635   22.1373 C   0  0  0  0  0  0  0  0  0  0  0  0
   11.3377    0.3938   22.1884 C   0  0  0  0  0  0  0  0  0  0  0  0
   11.2098   -0.4429   23.2199 C   0  0  0  0  0  0  0  0  0  0  0  0
   10.6075   -0.0516   24.5054 C   0  0  0  0  0  0  0  0  0  0  0  0
    9.3612    0.3989   24.6600 C   0  0  0  0  0  0  0  0  0  0  0  0
    8.2397    0.3163   23.6397 C   0  0  1  0  0  0  0  0  0  0  0  0
    6.9184    0.7619   24.2569 C   0  0  0  0  0  0  0  0  0  0  0  0
    6.6564    2.1190   24.4335 C   0  0  0  0  0  0  0  0  0  0  0  0
    5.4611    2.5386   25.0039 C   0  0  0  0  0  0  0  0  0  0  0  0
    4.5135    1.6011   25.4096 C   0  0  0  0  0  0  0  0  0  0  0  0
    4.7770    0.2419   25.2571 C   0  0  0  0  0  0  0  0  0  0  0  0
    5.9771   -0.1726   24.6870 C   0  0  0  0  0  0  0  0  0  0  0  0
    7.5151   -1.2026   20.8308 H   0  0  0  0  0  0  0  0  0  0  0  0
    6.3498   -0.5943   22.0073 H   0  0  0  0  0  0  0  0  0  0  0  0
    6.8924   -1.4693   18.5894 H   0  0  0  0  0  0  0  0  0  0  0  0
    3.5136    0.1825   16.9348 H   0  0  0  0  0  0  0  0  0  0  0  0
    1.9883    1.5995   18.2818 H   0  0  0  0  0  0  0  0  0  0  0  0
    1.3704    2.6479   20.4231 H   0  0  0  0  0  0  0  0  0  0  0  0
    2.9345    2.5129   22.3465 H   0  0  0  0  0  0  0  0  0  0  0  0
    5.0339    1.2665   22.1908 H   0  0  0  0  0  0  0  0  0  0  0  0
    9.1558    3.0887   22.2810 H   0  0  0  0  0  0  0  0  0  0  0  0
   11.5070    2.5619   21.9269 H   0  0  0  0  0  0  0  0  0  0  0  0
   11.9141    0.0581   21.3310 H   0  0  0  0  0  0  0  0  0  0  0  0
   11.6435   -1.4408   23.1582 H   0  0  0  0  0  0  0  0  0  0  0  0
   11.2868   -0.1054   25.3580 H   0  0  0  0  0  0  0  0  0  0  0  0
    9.0458    0.7534   25.6375 H   0  0  0  0  0  0  0  0  0  0  0  0
    8.1626   -0.7410   23.3595 H   0  0  0  0  0  0  0  0  0  0  0  0
    7.4056    2.8435   24.1268 H   0  0  0  0  0  0  0  0  0  0  0  0
    5.2702    3.5996   25.1251 H   0  0  0  0  0  0  0  0  0  0  0  0
    3.5746    1.9288   25.8409 H   0  0  0  0  0  0  0  0  0  0  0  0
    4.0489   -0.4993   25.5681 H   0  0  0  0  0  0  0  0  0  0  0  0
    6.1887   -1.2326   24.5733 H   0  0  0  0  0  0  0  0  0  0  0  0
  1  2  2  0
  2  3  1  0
  3  4  1  0
  4  5  2  0
  5  6  1  0
  6  7  2  0
  7  8  1  0
  8  9  2  0
  9 10  1  0
 10 11  2  0
 11 12  1  0
 12 13  2  0
  2 14  1  0
 14 15  1  0
 15 16  2  3
 16 17  1  0
 17 18  2  3
 18 19  1  0
 19 20  2  3
 20 21  1  0
 21 22  1  0
 22 23  2  0
 23 24  1  0
 24 25  2  0
 25 26  1  0
 26 27  2  0
 13  4  1  0
 21 14  1  0
 27 22  1  0
 13  8  1  0
  3 28  1  0
  3 29  1  0
  5 30  1  0
  7 31  1  0
  9 32  1  0
 10 33  1  0
 11 34  1  0
 12 35  1  0
 15 36  1  0
 16 37  1  0
 17 38  1  0
 18 39  1  0
 19 40  1  0
 20 41  1  0
 21 42  1  6
 23 43  1  0
 24 44  1  0
 25 45  1  0
 26 46  1  0
 27 47  1  0
M  END
$$$$
