
     RDKit          3D

 62 67  0  0  0  0  0  0  0  0999 V2000
   -7.6702    4.5240  -27.1889 C   0  0  0  0  0  0  0  0  0  0  0  0
   -8.9089    3.6399  -27.1676 C   0  0  0  0  0  0  0  0  0  0  0  0
   -8.5912    2.2679  -27.5454 N   0  0  0  0  0  0  0  0  0  0  0  0
   -8.6852    1.9370  -28.8417 N   0  0  0  0  0  0  0  0  0  0  0  0
   -8.4172    0.6417  -28.8890 C   0  0  0  0  0  0  0  0  0  0  0  0
   -8.1319    0.1258  -27.6054 C   0  0  0  0  0  0  0  0  0  0  0  0
   -8.2434    1.2144  -26.7555 C   0  0  0  0  0  0  0  0  0  0  0  0
   -8.0649    1.3511  -25.2607 C   0  0  0  0  0  0  0  0  0  0  0  0
   -8.9167    0.4617  -24.5024 N   0  0  0  0  0  0  0  0  0  0  0  0
   -8.5012   -0.9076  -24.2776 C   0  0  0  0  0  0  0  0  0  0  0  0
   -9.0574   -1.4358  -22.9277 C   0  0  2  0  0  0  0  0  0  0  0  0
   -8.4582   -0.5822  -21.7657 C   0  0  0  0  0  0  0  0  0  0  0  0
   -8.7417    0.5517  -21.4622 O   0  0  0  0  0  0  0  0  0  0  0  0
   -7.4917   -1.3400  -21.1274 N   0  0  0  0  0  0  0  0  0  0  0  0
   -6.6441   -0.8212  -20.1093 C   0  0  0  0  0  0  0  0  0  0  0  0
   -6.8598   -1.1843  -18.8034 C   0  0  0  0  0  0  0  0  0  0  0  0
   -6.0728   -0.8223  -17.7608 N   0  0  0  0  0  0  0  0  0  0  0  0
   -5.0415   -0.0571  -18.0225 C   0  0  0  0  0  0  0  0  0  0  0  0
   -4.7198    0.4248  -19.3212 C   0  0  0  0  0  0  0  0  0  0  0  0
   -3.6440    1.3283  -19.5250 C   0  0  0  0  0  0  0  0  0  0  0  0
   -3.3369    1.7562  -20.7873 C   0  0  0  0  0  0  0  0  0  0  0  0
   -4.0733    1.2890  -21.9000 C   0  0  0  0  0  0  0  0  0  0  0  0
   -5.1379    0.4430  -21.7223 C   0  0  0  0  0  0  0  0  0  0  0  0
   -5.5109    0.0059  -20.4166 C   0  0  0  0  0  0  0  0  0  0  0  0
   -7.2101   -2.5864  -21.8146 C   0  0  0  0  0  0  0  0  0  0  0  0
   -8.5252   -2.8451  -22.5586 C   0  0  2  0  0  0  0  0  0  0  0  0
   -8.4267   -3.8385  -23.7068 C   0  0  0  0  0  0  0  0  0  0  0  0
  -10.5678   -1.3060  -23.0468 C   0  0  0  0  0  0  0  0  0  0  0  0
  -11.4754   -2.2846  -22.6224 C   0  0  0  0  0  0  0  0  0  0  0  0
  -12.8231   -1.9907  -22.6261 C   0  0  0  0  0  0  0  0  0  0  0  0
  -13.6848   -2.9051  -22.1470 F   0  0  0  0  0  0  0  0  0  0  0  0
  -13.3426   -0.7899  -23.0932 C   0  0  0  0  0  0  0  0  0  0  0  0
  -12.4556    0.1431  -23.5876 C   0  0  0  0  0  0  0  0  0  0  0  0
  -11.0869   -0.1192  -23.5910 C   0  0  0  0  0  0  0  0  0  0  0  0
  -10.1730    0.8991  -24.1993 C   0  0  0  0  0  0  0  0  0  0  0  0
  -10.5467    2.0457  -24.4192 O   0  0  0  0  0  0  0  0  0  0  0  0
   -6.9091    4.1506  -26.4924 H   0  0  0  0  0  0  0  0  0  0  0  0
   -7.9306    5.5502  -26.9149 H   0  0  0  0  0  0  0  0  0  0  0  0
   -7.2552    4.5223  -28.2011 H   0  0  0  0  0  0  0  0  0  0  0  0
   -9.4127    3.6326  -26.1950 H   0  0  0  0  0  0  0  0  0  0  0  0
   -9.6335    3.9768  -27.9147 H   0  0  0  0  0  0  0  0  0  0  0  0
   -8.4442    0.1443  -29.8568 H   0  0  0  0  0  0  0  0  0  0  0  0
   -7.9077   -0.9020  -27.3445 H   0  0  0  0  0  0  0  0  0  0  0  0
   -7.0256    1.1472  -24.9745 H   0  0  0  0  0  0  0  0  0  0  0  0
   -8.2939    2.3718  -24.9346 H   0  0  0  0  0  0  0  0  0  0  0  0
   -7.4085   -0.9332  -24.2710 H   0  0  0  0  0  0  0  0  0  0  0  0
   -8.8556   -1.5558  -25.0923 H   0  0  0  0  0  0  0  0  0  0  0  0
   -7.7117   -1.8173  -18.5583 H   0  0  0  0  0  0  0  0  0  0  0  0
   -4.4019    0.2330  -17.1898 H   0  0  0  0  0  0  0  0  0  0  0  0
   -3.0882    1.6790  -18.6571 H   0  0  0  0  0  0  0  0  0  0  0  0
   -2.5210    2.4539  -20.9429 H   0  0  0  0  0  0  0  0  0  0  0  0
   -3.7983    1.6176  -22.9006 H   0  0  0  0  0  0  0  0  0  0  0  0
   -5.7139    0.1194  -22.5868 H   0  0  0  0  0  0  0  0  0  0  0  0
   -6.9810   -3.3694  -21.0882 H   0  0  0  0  0  0  0  0  0  0  0  0
   -6.3574   -2.4987  -22.5131 H   0  0  0  0  0  0  0  0  0  0  0  0
   -9.2012   -3.2405  -21.7906 H   0  0  0  0  0  0  0  0  0  0  0  0
   -8.1294   -4.8277  -23.3445 H   0  0  0  0  0  0  0  0  0  0  0  0
   -9.3934   -3.9276  -24.2149 H   0  0  0  0  0  0  0  0  0  0  0  0
   -7.6873   -3.5043  -24.4442 H   0  0  0  0  0  0  0  0  0  0  0  0
  -11.1661   -3.2712  -22.2878 H   0  0  0  0  0  0  0  0  0  0  0  0
  -14.4134   -0.6184  -23.0731 H   0  0  0  0  0  0  0  0  0  0  0  0
  -12.7997    1.0893  -23.9871 H   0  0  0  0  0  0  0  0  0  0  0  0
  1  2  1  0
  2  3  1  0
  3  4  1  0
  4  5  2  0
  5  6  1  0
  6  7  2  0
  7  8  1  0
  8  9  1  0
  9 10  1  0
 11 10  1  6
 11 12  1  0
 12 13  2  0
 12 14  1  0
 14 15  1  0
 15 16  2  0
 16 17  1  0
 17 18  2  0
 18 19  1  0
 19 20  2  0
 20 21  1  0
 21 22  2  0
 22 23  1  0
 23 24  2  0
 14 25  1  0
 25 26  1  0
 26 27  1  0
 11 28  1  0
 28 29  2  0
 29 30  1  0
 30 31  1  0
 30 32  2  0
 32 33  1  0
 33 34  2  0
 34 35  1  0
 35 36  2  0
  7  3  1  0
 35  9  1  0
 26 11  1  0
 34 28  1  0
 24 15  1  0
 24 19  1  0
  1 37  1  0
  1 38  1  0
  1 39  1  0
  2 40  1  0
  2 41  1  0
  5 42  1  0
  6 43  1  0
  8 44  1  0
  8 45  1  0
 10 46  1  0
 10 47  1  0
 16 48  1  0
 18 49  1  0
 20 50  1  0
 21 51  1  0
 22 52  1  0
 23 53  1  0
 25 54  1  0
 25 55  1  0
 26 56  1  1
 27 57  1  0
 27 58  1  0
 27 59  1  0
 29 60  1  0
 32 61  1  0
 33 62  1  0
M  END
