
     RDKit          3D

 67 73  0  0  0  0  0  0  0  0999 V2000
    7.9318    4.7278   22.7952 O   0  0  0  0  0  0  0  0  0  0  0  0
    8.1284    3.5241   22.8939 C   0  0  0  0  0  0  0  0  0  0  0  0
    9.4663    2.9182   22.5995 C   0  0  0  0  0  0  0  0  0  0  0  0
   10.5479    3.7757   22.4512 C   0  0  0  0  0  0  0  0  0  0  0  0
   11.8364    3.2793   22.4915 C   0  0  0  0  0  0  0  0  0  0  0  0
   12.0086    1.9087   22.7038 C   0  0  0  0  0  0  0  0  0  0  0  0
   13.6149    1.2503   22.8188 Cl  0  0  0  0  0  0  0  0  0  0  0  0
   10.9343    1.0413   22.7781 C   0  0  0  0  0  0  0  0  0  0  0  0
    9.6406    1.5289   22.5972 C   0  0  0  0  0  0  0  0  0  0  0  0
    8.3873    0.7102   22.4510 C   0  0  1  0  0  0  0  0  0  0  0  0
    7.4710    1.2540   23.5816 C   0  0  0  0  0  0  0  0  0  0  0  0
    7.1626    2.6516   23.3365 N   0  0  0  0  0  0  0  0  0  0  0  0
    6.0287    3.2176   24.0406 C   0  0  0  0  0  0  0  0  0  0  0  0
    6.2952    3.4490   25.5180 C   0  0  0  0  0  0  0  0  0  0  0  0
    7.0174    4.5356   25.9597 C   0  0  0  0  0  0  0  0  0  0  0  0
    7.1241    4.7207   27.3368 C   0  0  0  0  0  0  0  0  0  0  0  0
    6.6371    3.8747   28.2416 N   0  0  0  0  0  0  0  0  0  0  0  0
    6.0053    2.7881   27.8250 N   0  0  0  0  0  0  0  0  0  0  0  0
    5.8399    2.5826   26.5221 C   0  0  0  0  0  0  0  0  0  0  0  0
    7.6841    0.9444   21.0927 C   0  0  0  0  0  0  0  0  0  0  0  0
    7.7375    1.9068   20.3646 O   0  0  0  0  0  0  0  0  0  0  0  0
    6.9147   -0.1753   20.8434 N   0  0  0  0  0  0  0  0  0  0  0  0
    5.8881   -0.1315   19.8664 C   0  0  0  0  0  0  0  0  0  0  0  0
    6.0468   -0.7941   18.6800 C   0  0  0  0  0  0  0  0  0  0  0  0
    5.2104   -0.6720   17.6195 N   0  0  0  0  0  0  0  0  0  0  0  0
    4.1573    0.0971   17.7651 C   0  0  0  0  0  0  0  0  0  0  0  0
    3.8249    0.7731   18.9724 C   0  0  0  0  0  0  0  0  0  0  0  0
    2.6472    1.5542   19.1051 C   0  0  0  0  0  0  0  0  0  0  0  0
    2.3224    2.1273   20.3022 C   0  0  0  0  0  0  0  0  0  0  0  0
    3.1859    1.9871   21.4121 C   0  0  0  0  0  0  0  0  0  0  0  0
    4.3559    1.2801   21.2960 C   0  0  0  0  0  0  0  0  0  0  0  0
    4.7055    0.6479   20.0700 C   0  0  0  0  0  0  0  0  0  0  0  0
    7.1251   -1.2418   21.8000 C   0  0  0  0  0  0  0  0  0  0  0  0
    8.4461   -0.8322   22.4926 C   0  0  1  0  0  0  0  0  0  0  0  0
    9.6470   -1.5237   21.7886 C   0  0  0  0  0  0  0  0  0  0  0  0
   10.4277   -2.3128   22.7242 N   0  0  0  0  0  0  0  0  0  0  0  0
    9.9127   -3.4340   23.3118 C   0  0  0  0  0  0  0  0  0  0  0  0
   10.6006   -4.0802   24.3563 C   0  0  0  0  0  0  0  0  0  0  0  0
    9.9870   -5.1746   24.9253 C   0  0  0  0  0  0  0  0  0  0  0  0
    8.8149   -5.6741   24.4923 N   0  0  0  0  0  0  0  0  0  0  0  0
    8.2618   -4.9928   23.5007 C   0  0  0  0  0  0  0  0  0  0  0  0
    8.7187   -3.8897   22.8955 N   0  0  0  0  0  0  0  0  0  0  0  0
   10.3324    4.8328   22.3345 H   0  0  0  0  0  0  0  0  0  0  0  0
   12.6896    3.9404   22.3947 H   0  0  0  0  0  0  0  0  0  0  0  0
   11.1093   -0.0067   22.9817 H   0  0  0  0  0  0  0  0  0  0  0  0
    6.5493    0.6686   23.6500 H   0  0  0  0  0  0  0  0  0  0  0  0
    7.9912    1.1385   24.5427 H   0  0  0  0  0  0  0  0  0  0  0  0
    5.8092    4.1669   23.5456 H   0  0  0  0  0  0  0  0  0  0  0  0
    5.1611    2.5639   23.8906 H   0  0  0  0  0  0  0  0  0  0  0  0
    7.4756    5.2278   25.2539 H   0  0  0  0  0  0  0  0  0  0  0  0
    7.6179    5.6001   27.7441 H   0  0  0  0  0  0  0  0  0  0  0  0
    5.3043    1.6730   26.2686 H   0  0  0  0  0  0  0  0  0  0  0  0
    6.9131   -1.4377   18.5339 H   0  0  0  0  0  0  0  0  0  0  0  0
    3.4793    0.1849   16.9148 H   0  0  0  0  0  0  0  0  0  0  0  0
    2.0173    1.7044   18.2353 H   0  0  0  0  0  0  0  0  0  0  0  0
    1.4040    2.6977   20.4081 H   0  0  0  0  0  0  0  0  0  0  0  0
    2.9144    2.4471   22.3568 H   0  0  0  0  0  0  0  0  0  0  0  0
    5.0332    1.1929   22.1410 H   0  0  0  0  0  0  0  0  0  0  0  0
    6.3060   -1.3055   22.5314 H   0  0  0  0  0  0  0  0  0  0  0  0
    7.1939   -2.2050   21.2871 H   0  0  0  0  0  0  0  0  0  0  0  0
    8.4476   -1.1344   23.5429 H   0  0  0  0  0  0  0  0  0  0  0  0
   10.2846   -0.8191   21.2494 H   0  0  0  0  0  0  0  0  0  0  0  0
    9.2881   -2.2167   21.0259 H   0  0  0  0  0  0  0  0  0  0  0  0
   11.4085   -2.1234   22.8608 H   0  0  0  0  0  0  0  0  0  0  0  0
   11.5553   -3.6973   24.7154 H   0  0  0  0  0  0  0  0  0  0  0  0
   10.4477   -5.6868   25.7725 H   0  0  0  0  0  0  0  0  0  0  0  0
    7.3250   -5.3912   23.1066 H   0  0  0  0  0  0  0  0  0  0  0  0
  1  2  2  0
  2  3  1  0
  3  4  2  0
  4  5  1  0
  5  6  2  0
  6  7  1  0
  6  8  1  0
  8  9  2  0
  9 10  1  0
 10 11  1  1
 11 12  1  0
 12 13  1  0
 13 14  1  0
 14 15  2  0
 15 16  1  0
 16 17  2  0
 17 18  1  0
 18 19  2  0
 10 20  1  0
 20 21  2  0
 20 22  1  0
 22 23  1  0
 23 24  2  0
 24 25  1  0
 25 26  2  0
 26 27  1  0
 27 28  2  0
 28 29  1  0
 29 30  2  0
 30 31  1  0
 31 32  2  0
 22 33  1  0
 33 34  1  0
 34 35  1  0
 35 36  1  0
 36 37  1  0
 37 38  2  0
 38 39  1  0
 39 40  2  0
 40 41  1  0
 41 42  2  0
 12  2  1  0
 19 14  1  0
 32 23  1  0
 42 37  1  0
  9  3  1  0
 34 10  1  0
 32 27  1  0
  4 43  1  0
  5 44  1  0
  8 45  1  0
 11 46  1  0
 11 47  1  0
 13 48  1  0
 13 49  1  0
 15 50  1  0
 16 51  1  0
 19 52  1  0
 24 53  1  0
 26 54  1  0
 28 55  1  0
 29 56  1  0
 30 57  1  0
 31 58  1  0
 33 59  1  0
 33 60  1  0
 34 61  1  6
 35 62  1  0
 35 63  1  0
 36 64  1  0
 38 65  1  0
 39 66  1  0
 41 67  1  0
M  END
$$$$
