
     RDKit          3D

 63 68  0  0  0  0  0  0  0  0999 V2000
   -8.4313   -3.8365  -23.7015 C   0  0  0  0  0  0  0  0  0  0  0  0
   -8.5339   -2.8309  -22.5642 C   0  0  1  0  0  0  0  0  0  0  0  0
   -7.2202   -2.5705  -21.8187 C   0  0  0  0  0  0  0  0  0  0  0  0
   -7.4974   -1.3118  -21.1532 N   0  0  0  0  0  0  0  0  0  0  0  0
   -6.6574   -0.7948  -20.1260 C   0  0  0  0  0  0  0  0  0  0  0  0
   -6.8658   -1.1793  -18.8229 C   0  0  0  0  0  0  0  0  0  0  0  0
   -6.0848   -0.8134  -17.7794 N   0  0  0  0  0  0  0  0  0  0  0  0
   -5.0623   -0.0322  -18.0245 C   0  0  0  0  0  0  0  0  0  0  0  0
   -4.7377    0.4567  -19.3224 C   0  0  0  0  0  0  0  0  0  0  0  0
   -3.6466    1.3420  -19.5332 C   0  0  0  0  0  0  0  0  0  0  0  0
   -3.3220    1.7588  -20.7933 C   0  0  0  0  0  0  0  0  0  0  0  0
   -4.0658    1.2972  -21.8998 C   0  0  0  0  0  0  0  0  0  0  0  0
   -5.1477    0.4668  -21.7202 C   0  0  0  0  0  0  0  0  0  0  0  0
   -5.5334    0.0437  -20.4182 C   0  0  0  0  0  0  0  0  0  0  0  0
   -8.4737   -0.5816  -21.7865 C   0  0  0  0  0  0  0  0  0  0  0  0
   -8.7775    0.5604  -21.4960 O   0  0  0  0  0  0  0  0  0  0  0  0
   -9.0723   -1.4255  -22.9412 C   0  0  1  0  0  0  0  0  0  0  0  0
   -8.5002   -0.9016  -24.2874 C   0  0  0  0  0  0  0  0  0  0  0  0
   -9.0021    0.4223  -24.6194 N   0  0  0  0  0  0  0  0  0  0  0  0
   -8.1935    1.2868  -25.4441 C   0  0  0  0  0  0  0  0  0  0  0  0
   -7.4231    2.3875  -24.7211 C   0  0  0  0  0  0  0  0  0  0  0  0
   -6.7501    3.1736  -25.3767 O   0  0  0  0  0  0  0  0  0  0  0  0
   -7.4894    2.4028  -23.3769 N   0  0  0  0  0  0  0  0  0  0  0  0
   -6.6221    3.3020  -22.6450 C   0  0  0  0  0  0  0  0  0  0  0  0
   -7.0381    4.7477  -22.7449 C   0  0  0  0  0  0  0  0  0  0  0  0
   -8.3058    5.1817  -22.0953 C   0  0  0  0  0  0  0  0  0  0  0  0
   -6.9767    5.6294  -21.5359 C   0  0  0  0  0  0  0  0  0  0  0  0
  -10.2394    0.8750  -24.2583 C   0  0  0  0  0  0  0  0  0  0  0  0
  -10.6077    2.0224  -24.4850 O   0  0  0  0  0  0  0  0  0  0  0  0
  -11.1199   -0.1292  -23.5881 C   0  0  0  0  0  0  0  0  0  0  0  0
  -12.4906    0.1212  -23.5719 C   0  0  0  0  0  0  0  0  0  0  0  0
  -13.3686   -0.8165  -23.0666 C   0  0  0  0  0  0  0  0  0  0  0  0
  -12.8386   -2.0134  -22.5968 C   0  0  0  0  0  0  0  0  0  0  0  0
  -13.6813   -2.9310  -22.0885 F   0  0  0  0  0  0  0  0  0  0  0  0
  -11.4840   -2.2889  -22.6089 C   0  0  0  0  0  0  0  0  0  0  0  0
  -10.5838   -1.3064  -23.0453 C   0  0  0  0  0  0  0  0  0  0  0  0
   -9.3911   -3.9309  -24.2216 H   0  0  0  0  0  0  0  0  0  0  0  0
   -8.1441   -4.8245  -23.3279 H   0  0  0  0  0  0  0  0  0  0  0  0
   -7.6804   -3.5260  -24.4375 H   0  0  0  0  0  0  0  0  0  0  0  0
   -9.2156   -3.2175  -21.7992 H   0  0  0  0  0  0  0  0  0  0  0  0
   -6.3692   -2.4898  -22.5170 H   0  0  0  0  0  0  0  0  0  0  0  0
   -6.9763   -3.3465  -21.0868 H   0  0  0  0  0  0  0  0  0  0  0  0
   -7.7110   -1.8196  -18.5751 H   0  0  0  0  0  0  0  0  0  0  0  0
   -4.4388    0.2609  -17.1782 H   0  0  0  0  0  0  0  0  0  0  0  0
   -3.0940    1.6867  -18.6657 H   0  0  0  0  0  0  0  0  0  0  0  0
   -2.5021    2.4543  -20.9484 H   0  0  0  0  0  0  0  0  0  0  0  0
   -3.7898    1.6164  -22.9011 H   0  0  0  0  0  0  0  0  0  0  0  0
   -5.7147    0.1257  -22.5815 H   0  0  0  0  0  0  0  0  0  0  0  0
   -8.7670   -1.6041  -25.0887 H   0  0  0  0  0  0  0  0  0  0  0  0
   -7.4068   -0.8405  -24.2281 H   0  0  0  0  0  0  0  0  0  0  0  0
   -8.8117    1.7730  -26.2019 H   0  0  0  0  0  0  0  0  0  0  0  0
   -7.4504    0.6806  -25.9713 H   0  0  0  0  0  0  0  0  0  0  0  0
   -8.1454    1.8286  -22.8527 H   0  0  0  0  0  0  0  0  0  0  0  0
   -5.6166    3.1926  -23.0519 H   0  0  0  0  0  0  0  0  0  0  0  0
   -6.6028    2.9666  -21.5993 H   0  0  0  0  0  0  0  0  0  0  0  0
   -6.8003    5.2026  -23.7022 H   0  0  0  0  0  0  0  0  0  0  0  0
   -8.8824    4.4489  -21.5332 H   0  0  0  0  0  0  0  0  0  0  0  0
   -8.9386    5.8766  -22.6419 H   0  0  0  0  0  0  0  0  0  0  0  0
   -6.6373    5.1914  -20.5959 H   0  0  0  0  0  0  0  0  0  0  0  0
   -6.6803    6.6675  -21.6546 H   0  0  0  0  0  0  0  0  0  0  0  0
  -12.8436    1.0612  -23.9816 H   0  0  0  0  0  0  0  0  0  0  0  0
  -14.4386   -0.6428  -23.0210 H   0  0  0  0  0  0  0  0  0  0  0  0
  -11.1539   -3.2566  -22.2484 H   0  0  0  0  0  0  0  0  0  0  0  0
  1  2  1  0
  2  3  1  0
  3  4  1  0
  4  5  1  0
  5  6  2  0
  6  7  1  0
  7  8  2  0
  8  9  1  0
  9 10  2  0
 10 11  1  0
 11 12  2  0
 12 13  1  0
 13 14  2  0
  4 15  1  0
 15 16  2  0
 15 17  1  0
 17 18  1  6
 18 19  1  0
 19 20  1  0
 20 21  1  0
 21 22  2  0
 21 23  1  0
 23 24  1  0
 24 25  1  0
 25 26  1  0
 26 27  1  0
 19 28  1  0
 28 29  2  0
 28 30  1  0
 30 31  2  0
 31 32  1  0
 32 33  2  0
 33 34  1  0
 33 35  1  0
 35 36  2  0
 17  2  1  0
 27 25  1  0
 36 30  1  0
 14  5  1  0
 36 17  1  0
 14  9  1  0
  1 37  1  0
  1 38  1  0
  1 39  1  0
  2 40  1  1
  3 41  1  0
  3 42  1  0
  6 43  1  0
  8 44  1  0
 10 45  1  0
 11 46  1  0
 12 47  1  0
 13 48  1  0
 18 49  1  0
 18 50  1  0
 20 51  1  0
 20 52  1  0
 23 53  1  0
 24 54  1  0
 24 55  1  0
 25 56  1  0
 26 57  1  0
 26 58  1  0
 27 59  1  0
 27 60  1  0
 31 61  1  0
 32 62  1  0
 35 63  1  0
M  END
