
     RDKit          3D

 63 68  0  0  0  0  0  0  0  0999 V2000
    8.9368   -2.7518   23.6802 C   0  0  0  0  0  0  0  0  0  0  0  0
    8.9864   -1.7624   22.5253 C   0  0  1  0  0  0  0  0  0  0  0  0
    7.6500   -1.5506   21.8052 C   0  0  0  0  0  0  0  0  0  0  0  0
    7.8773   -0.2957   21.1141 N   0  0  0  0  0  0  0  0  0  0  0  0
    7.0009    0.1811   20.0979 C   0  0  0  0  0  0  0  0  0  0  0  0
    7.1916   -0.2186   18.7967 C   0  0  0  0  0  0  0  0  0  0  0  0
    6.3781    0.1086   17.7652 N   0  0  0  0  0  0  0  0  0  0  0  0
    5.3397    0.8650   18.0207 C   0  0  0  0  0  0  0  0  0  0  0  0
    5.0298    1.3658   19.3177 C   0  0  0  0  0  0  0  0  0  0  0  0
    3.9192    2.2238   19.5388 C   0  0  0  0  0  0  0  0  0  0  0  0
    3.6105    2.6519   20.7991 C   0  0  0  0  0  0  0  0  0  0  0  0
    4.3909    2.2291   21.8959 C   0  0  0  0  0  0  0  0  0  0  0  0
    5.4915    1.4262   21.7053 C   0  0  0  0  0  0  0  0  0  0  0  0
    5.8605    0.9928   20.4019 C   0  0  0  0  0  0  0  0  0  0  0  0
    8.8462    0.4715   21.7141 C   0  0  0  0  0  0  0  0  0  0  0  0
    9.1115    1.6166   21.3991 O   0  0  0  0  0  0  0  0  0  0  0  0
    9.4933   -0.3367   22.8683 C   0  0  1  0  0  0  0  0  0  0  0  0
    8.9361    0.1930   24.2185 C   0  0  0  0  0  0  0  0  0  0  0  0
    9.4078    1.5355   24.5185 N   0  0  0  0  0  0  0  0  0  0  0  0
    8.5935    2.3906   25.3474 C   0  0  0  0  0  0  0  0  0  0  0  0
    7.7769    3.4576   24.6246 C   0  0  0  0  0  0  0  0  0  0  0  0
    7.0966    4.2353   25.2826 O   0  0  0  0  0  0  0  0  0  0  0  0
    7.8135    3.4529   23.2791 N   0  0  0  0  0  0  0  0  0  0  0  0
    6.9056    4.3157   22.5527 C   0  0  0  0  0  0  0  0  0  0  0  0
    7.2830    5.7738   22.6208 C   0  0  0  0  0  0  0  0  0  0  0  0
    8.5236    6.2322   21.9365 C   0  0  0  0  0  0  0  0  0  0  0  0
    7.1706    6.6338   21.3998 C   0  0  0  0  0  0  0  0  0  0  0  0
   10.6238    2.0164   24.1230 C   0  0  0  0  0  0  0  0  0  0  0  0
   10.9646    3.1771   24.3235 O   0  0  0  0  0  0  0  0  0  0  0  0
   11.5173    1.0262   23.4492 C   0  0  0  0  0  0  0  0  0  0  0  0
   12.8798    1.3142   23.3986 C   0  0  0  0  0  0  0  0  0  0  0  0
   13.7725    0.3930   22.8887 C   0  0  0  0  0  0  0  0  0  0  0  0
   13.2662   -0.8255   22.4495 C   0  0  0  0  0  0  0  0  0  0  0  0
   14.1230   -1.7276   21.9370 F   0  0  0  0  0  0  0  0  0  0  0  0
   11.9204   -1.1382   22.4960 C   0  0  0  0  0  0  0  0  0  0  0  0
   11.0027   -0.1741   22.9369 C   0  0  0  0  0  0  0  0  0  0  0  0
    9.9100   -2.8111   24.1803 H   0  0  0  0  0  0  0  0  0  0  0  0
    8.6694   -3.7533   23.3286 H   0  0  0  0  0  0  0  0  0  0  0  0
    8.1937   -2.4503   24.4278 H   0  0  0  0  0  0  0  0  0  0  0  0
    9.6619   -2.1423   21.7515 H   0  0  0  0  0  0  0  0  0  0  0  0
    6.8125   -1.4822   22.5209 H   0  0  0  0  0  0  0  0  0  0  0  0
    7.4121   -2.3448   21.0911 H   0  0  0  0  0  0  0  0  0  0  0  0
    8.0488   -0.8392   18.5402 H   0  0  0  0  0  0  0  0  0  0  0  0
    4.6900    1.1270   17.1840 H   0  0  0  0  0  0  0  0  0  0  0  0
    3.3384    2.5389   18.6785 H   0  0  0  0  0  0  0  0  0  0  0  0
    2.7750    3.3268   20.9615 H   0  0  0  0  0  0  0  0  0  0  0  0
    4.1279    2.5567   22.8980 H   0  0  0  0  0  0  0  0  0  0  0  0
    6.0865    1.1149   22.5590 H   0  0  0  0  0  0  0  0  0  0  0  0
    9.2399   -0.4887   25.0246 H   0  0  0  0  0  0  0  0  0  0  0  0
    7.8404    0.2228   24.1826 H   0  0  0  0  0  0  0  0  0  0  0  0
    9.2141    2.9059   26.0836 H   0  0  0  0  0  0  0  0  0  0  0  0
    7.8793    1.7727   25.9004 H   0  0  0  0  0  0  0  0  0  0  0  0
    8.4738    2.8887   22.7495 H   0  0  0  0  0  0  0  0  0  0  0  0
    5.9127    4.1852   22.9835 H   0  0  0  0  0  0  0  0  0  0  0  0
    6.8730    3.9630   21.5131 H   0  0  0  0  0  0  0  0  0  0  0  0
    7.0534    6.2375   23.5759 H   0  0  0  0  0  0  0  0  0  0  0  0
    9.1081    5.5066   21.3732 H   0  0  0  0  0  0  0  0  0  0  0  0
    9.1484    6.9531   22.4579 H   0  0  0  0  0  0  0  0  0  0  0  0
    6.8232    6.1713   20.4745 H   0  0  0  0  0  0  0  0  0  0  0  0
    6.8478    7.6650   21.5088 H   0  0  0  0  0  0  0  0  0  0  0  0
   13.2151    2.2701   23.7857 H   0  0  0  0  0  0  0  0  0  0  0  0
   14.8360    0.5955   22.8166 H   0  0  0  0  0  0  0  0  0  0  0  0
   11.6098   -2.1204   22.1581 H   0  0  0  0  0  0  0  0  0  0  0  0
  1  2  1  0
  2  3  1  0
  3  4  1  0
  4  5  1  0
  5  6  2  0
  6  7  1  0
  7  8  2  0
  8  9  1  0
  9 10  2  0
 10 11  1  0
 11 12  2  0
 12 13  1  0
 13 14  2  0
  4 15  1  0
 15 16  2  0
 15 17  1  0
 17 18  1  1
 18 19  1  0
 19 20  1  0
 20 21  1  0
 21 22  2  0
 21 23  1  0
 23 24  1  0
 24 25  1  0
 25 26  1  0
 26 27  1  0
 19 28  1  0
 28 29  2  0
 28 30  1  0
 30 31  2  0
 31 32  1  0
 32 33  2  0
 33 34  1  0
 33 35  1  0
 35 36  2  0
 17  2  1  0
 27 25  1  0
 36 30  1  0
 14  5  1  0
 36 17  1  0
 14  9  1  0
  1 37  1  0
  1 38  1  0
  1 39  1  0
  2 40  1  6
  3 41  1  0
  3 42  1  0
  6 43  1  0
  8 44  1  0
 10 45  1  0
 11 46  1  0
 12 47  1  0
 13 48  1  0
 18 49  1  0
 18 50  1  0
 20 51  1  0
 20 52  1  0
 23 53  1  0
 24 54  1  0
 24 55  1  0
 25 56  1  0
 26 57  1  0
 26 58  1  0
 27 59  1  0
 27 60  1  0
 31 61  1  0
 32 62  1  0
 35 63  1  0
M  END
$$$$
