
     RDKit          3D

 66 70  0  0  0  0  0  0  0  0999 V2000
   -7.0074    3.6337  -22.4912 C   0  0  0  0  0  0  0  0  0  0  0  0
   -7.8006    2.7002  -23.2700 N   0  0  0  0  0  0  0  0  0  0  0  0
   -7.5101    2.5270  -24.5776 C   0  0  0  0  0  0  0  0  0  0  0  0
   -6.7374    3.2370  -25.2038 O   0  0  0  0  0  0  0  0  0  0  0  0
   -8.1570    1.3542  -25.3221 C   0  0  0  0  0  0  0  0  0  0  0  0
   -8.9936    0.4589  -24.5654 N   0  0  0  0  0  0  0  0  0  0  0  0
   -8.5135   -0.8834  -24.2744 C   0  0  0  0  0  0  0  0  0  0  0  0
   -9.0683   -1.4112  -22.9317 C   0  0  2  0  0  0  0  0  0  0  0  0
   -8.4712   -0.5658  -21.7833 C   0  0  0  0  0  0  0  0  0  0  0  0
   -8.7805    0.5773  -21.5017 O   0  0  0  0  0  0  0  0  0  0  0  0
   -7.5038   -1.3009  -21.1408 N   0  0  0  0  0  0  0  0  0  0  0  0
   -6.6566   -0.7913  -20.1201 C   0  0  0  0  0  0  0  0  0  0  0  0
   -6.8857   -1.1448  -18.8135 C   0  0  0  0  0  0  0  0  0  0  0  0
   -6.1246   -0.7482  -17.7653 N   0  0  0  0  0  0  0  0  0  0  0  0
   -5.1016    0.0343  -18.0069 C   0  0  0  0  0  0  0  0  0  0  0  0
   -4.7576    0.4890  -19.3138 C   0  0  0  0  0  0  0  0  0  0  0  0
   -3.6646    1.3680  -19.5330 C   0  0  0  0  0  0  0  0  0  0  0  0
   -3.3226    1.7616  -20.7961 C   0  0  0  0  0  0  0  0  0  0  0  0
   -4.0599    1.2873  -21.9007 C   0  0  0  0  0  0  0  0  0  0  0  0
   -5.1433    0.4605  -21.7181 C   0  0  0  0  0  0  0  0  0  0  0  0
   -5.5314    0.0456  -20.4121 C   0  0  0  0  0  0  0  0  0  0  0  0
   -7.2297   -2.5632  -21.7973 C   0  0  0  0  0  0  0  0  0  0  0  0
   -8.5336   -2.8199  -22.5623 C   0  0  2  0  0  0  0  0  0  0  0  0
   -8.3827   -3.8127  -23.7142 C   0  0  0  0  0  0  0  0  0  0  0  0
   -9.6160   -4.0244  -24.3701 O   0  0  0  0  0  0  0  0  0  0  0  0
  -10.1956   -5.3128  -24.2058 C   0  0  0  0  0  0  0  0  0  0  0  0
  -11.6785   -5.1530  -24.4670 C   0  0  0  0  0  0  0  0  0  0  0  0
   -9.5469   -6.3037  -25.1594 C   0  0  0  0  0  0  0  0  0  0  0  0
  -10.5756   -1.2893  -23.0358 C   0  0  0  0  0  0  0  0  0  0  0  0
  -11.4637   -2.2406  -22.5248 C   0  0  0  0  0  0  0  0  0  0  0  0
  -12.8194   -1.9674  -22.4679 C   0  0  0  0  0  0  0  0  0  0  0  0
  -13.8678   -3.0865  -21.6301 Cl  0  0  0  0  0  0  0  0  0  0  0  0
  -13.3615   -0.8015  -23.0046 C   0  0  0  0  0  0  0  0  0  0  0  0
  -12.5006    0.1082  -23.5873 C   0  0  0  0  0  0  0  0  0  0  0  0
  -11.1306   -0.1429  -23.6193 C   0  0  0  0  0  0  0  0  0  0  0  0
  -10.2601    0.8813  -24.2668 C   0  0  0  0  0  0  0  0  0  0  0  0
  -10.6488    2.0195  -24.4869 O   0  0  0  0  0  0  0  0  0  0  0  0
   -5.9439    3.5484  -22.7462 H   0  0  0  0  0  0  0  0  0  0  0  0
   -7.3066    4.6757  -22.6477 H   0  0  0  0  0  0  0  0  0  0  0  0
   -7.1418    3.3844  -21.4367 H   0  0  0  0  0  0  0  0  0  0  0  0
   -8.3559    2.0147  -22.7605 H   0  0  0  0  0  0  0  0  0  0  0  0
   -7.3364    0.7772  -25.7640 H   0  0  0  0  0  0  0  0  0  0  0  0
   -8.7328    1.7798  -26.1477 H   0  0  0  0  0  0  0  0  0  0  0  0
   -8.8215   -1.5777  -25.0663 H   0  0  0  0  0  0  0  0  0  0  0  0
   -7.4181   -0.8607  -24.2320 H   0  0  0  0  0  0  0  0  0  0  0  0
   -7.7559   -1.7477  -18.5596 H   0  0  0  0  0  0  0  0  0  0  0  0
   -4.5135    0.3756  -17.1515 H   0  0  0  0  0  0  0  0  0  0  0  0
   -3.1225    1.7343  -18.6698 H   0  0  0  0  0  0  0  0  0  0  0  0
   -2.4987    2.4532  -20.9554 H   0  0  0  0  0  0  0  0  0  0  0  0
   -3.7845    1.6036  -22.9023 H   0  0  0  0  0  0  0  0  0  0  0  0
   -5.7083    0.1181  -22.5792 H   0  0  0  0  0  0  0  0  0  0  0  0
   -6.3682   -2.4770  -22.4800 H   0  0  0  0  0  0  0  0  0  0  0  0
   -6.9779   -3.3358  -21.0646 H   0  0  0  0  0  0  0  0  0  0  0  0
   -9.2562   -3.2092  -21.8386 H   0  0  0  0  0  0  0  0  0  0  0  0
   -7.6655   -3.4233  -24.4520 H   0  0  0  0  0  0  0  0  0  0  0  0
   -7.9660   -4.7601  -23.3463 H   0  0  0  0  0  0  0  0  0  0  0  0
  -10.0387   -5.6360  -23.1674 H   0  0  0  0  0  0  0  0  0  0  0  0
  -12.1300   -4.4239  -23.7929 H   0  0  0  0  0  0  0  0  0  0  0  0
  -11.8314   -4.7991  -25.4897 H   0  0  0  0  0  0  0  0  0  0  0  0
  -12.1999   -6.1023  -24.3314 H   0  0  0  0  0  0  0  0  0  0  0  0
  -10.0132   -7.2865  -25.0753 H   0  0  0  0  0  0  0  0  0  0  0  0
   -8.4811   -6.4237  -24.9511 H   0  0  0  0  0  0  0  0  0  0  0  0
   -9.6587   -5.9571  -26.1902 H   0  0  0  0  0  0  0  0  0  0  0  0
  -11.1201   -3.1833  -22.1174 H   0  0  0  0  0  0  0  0  0  0  0  0
  -14.4258   -0.6045  -22.9137 H   0  0  0  0  0  0  0  0  0  0  0  0
  -12.8575    1.0450  -24.0034 H   0  0  0  0  0  0  0  0  0  0  0  0
  1  2  1  0
  2  3  1  0
  3  4  2  0
  3  5  1  0
  5  6  1  0
  6  7  1  0
  8  7  1  6
  8  9  1  0
  9 10  2  0
  9 11  1  0
 11 12  1  0
 12 13  2  0
 13 14  1  0
 14 15  2  0
 15 16  1  0
 16 17  2  0
 17 18  1  0
 18 19  2  0
 19 20  1  0
 20 21  2  0
 11 22  1  0
 22 23  1  0
 23 24  1  0
 24 25  1  0
 25 26  1  0
 26 27  1  0
 26 28  1  0
  8 29  1  0
 29 30  2  0
 30 31  1  0
 31 32  1  0
 31 33  2  0
 33 34  1  0
 34 35  2  0
 35 36  1  0
 36 37  2  0
 36  6  1  0
 23  8  1  0
 35 29  1  0
 21 12  1  0
 21 16  1  0
  1 38  1  0
  1 39  1  0
  1 40  1  0
  2 41  1  0
  5 42  1  0
  5 43  1  0
  7 44  1  0
  7 45  1  0
 13 46  1  0
 15 47  1  0
 17 48  1  0
 18 49  1  0
 19 50  1  0
 20 51  1  0
 22 52  1  0
 22 53  1  0
 23 54  1  1
 24 55  1  0
 24 56  1  0
 26 57  1  0
 27 58  1  0
 27 59  1  0
 27 60  1  0
 28 61  1  0
 28 62  1  0
 28 63  1  0
 30 64  1  0
 33 65  1  0
 34 66  1  0
M  END
