mobile
  PyMOL3.1          3D                             0

 47 50  0  0  0  0  0  0  0  0999 V2000
   -9.1564    0.3041  -21.3738 O   0  0  0  0  0  0  0  0  0  0  0  0
   -8.7928   -0.7693  -21.8321 C   0  0  0  0  0  0  0  0  0  0  0  0
   -9.5972   -1.4634  -22.9595 C   0  0  0  0  0  0  0  0  0  0  0  0
  -10.8515   -0.6468  -23.2940 C   0  0  0  0  0  0  0  0  0  0  0  0
  -10.6808    0.5888  -23.9161 C   0  0  0  0  0  0  0  0  0  0  0  0
  -11.7547    1.4511  -24.0307 C   0  0  0  0  0  0  0  0  0  0  0  0
  -11.4855    3.0382  -24.6904 Cl  0  0  0  0  0  0  0  0  0  0  0  0
  -13.0168    1.1113  -23.5951 C   0  0  0  0  0  0  0  0  0  0  0  0
  -13.2213   -0.1312  -23.0256 C   0  0  0  0  0  0  0  0  0  0  0  0
  -12.1480   -0.9970  -22.8779 C   0  0  0  0  0  0  0  0  0  0  0  0
  -12.4685   -2.5544  -22.1447 S   0  0  0  0  0  0  0  0  0  0  0  0
  -13.3310   -2.3762  -21.0161 O   0  0  0  0  0  0  0  0  0  0  0  0
  -12.8549   -3.4855  -23.1591 O   0  0  0  0  0  0  0  0  0  0  0  0
  -10.9963   -2.9870  -21.6008 N   0  0  0  0  0  0  0  0  0  0  0  0
   -9.9545   -2.9283  -22.6346 C   0  0  0  0  0  0  0  0  0  0  0  0
   -8.6394   -1.4299  -24.1655 C   0  0  0  0  0  0  0  0  0  0  0  0
   -7.7025   -1.4296  -21.3742 N   0  0  0  0  0  0  0  0  0  0  0  0
   -6.8891   -1.0101  -20.2894 C   0  0  0  0  0  0  0  0  0  0  0  0
   -5.7379   -0.2174  -20.4882 C   0  0  0  0  0  0  0  0  0  0  0  0
   -5.3261    0.1983  -21.8840 C   0  0  0  0  0  0  0  0  0  0  0  0
   -3.8800    0.6523  -21.9646 C   0  0  0  0  0  0  0  0  0  0  0  0
   -3.5672    1.6477  -20.8656 C   0  0  0  0  0  0  0  0  0  0  0  0
   -3.7523    1.0251  -19.4991 C   0  0  0  0  0  0  0  0  0  0  0  0
   -5.0178    0.2130  -19.3613 C   0  0  0  0  0  0  0  0  0  0  0  0
   -5.4894   -0.1508  -18.1146 C   0  0  0  0  0  0  0  0  0  0  0  0
   -6.5760   -0.8994  -17.9052 N   0  0  0  0  0  0  0  0  0  0  0  0
   -7.2513   -1.3237  -18.9802 C   0  0  0  0  0  0  0  0  0  0  0  0
   -9.7141    0.8718  -24.3056 H   0  0  0  0  0  0  0  0  0  0  0  0
  -13.8358    1.8072  -23.6961 H   0  0  0  0  0  0  0  0  0  0  0  0
  -14.2076   -0.4248  -22.6983 H   0  0  0  0  0  0  0  0  0  0  0  0
  -10.7481   -2.7524  -20.6613 H   0  0  0  0  0  0  0  0  0  0  0  0
  -10.3217   -3.4220  -23.5474 H   0  0  0  0  0  0  0  0  0  0  0  0
   -9.0556   -3.4486  -22.2727 H   0  0  0  0  0  0  0  0  0  0  0  0
   -9.1231   -1.9053  -25.0319 H   0  0  0  0  0  0  0  0  0  0  0  0
   -8.3942   -0.3862  -24.4100 H   0  0  0  0  0  0  0  0  0  0  0  0
   -7.7166   -1.9744  -23.9158 H   0  0  0  0  0  0  0  0  0  0  0  0
   -7.4514   -2.2802  -21.8362 H   0  0  0  0  0  0  0  0  0  0  0  0
   -5.4630   -0.6591  -22.5595 H   0  0  0  0  0  0  0  0  0  0  0  0
   -5.9736    1.0266  -22.2077 H   0  0  0  0  0  0  0  0  0  0  0  0
   -3.2199   -0.2213  -21.8590 H   0  0  0  0  0  0  0  0  0  0  0  0
   -3.7051    1.1279  -22.9419 H   0  0  0  0  0  0  0  0  0  0  0  0
   -2.5244    1.9826  -20.9704 H   0  0  0  0  0  0  0  0  0  0  0  0
   -4.2402    2.5121  -20.9614 H   0  0  0  0  0  0  0  0  0  0  0  0
   -2.8942    0.3669  -19.2999 H   0  0  0  0  0  0  0  0  0  0  0  0
   -3.7754    1.8329  -18.7519 H   0  0  0  0  0  0  0  0  0  0  0  0
   -4.9407    0.1924  -17.2488 H   0  0  0  0  0  0  0  0  0  0  0  0
   -8.1237   -1.9409  -18.8247 H   0  0  0  0  0  0  0  0  0  0  0  0
  1  2  2  0  0  0  0
  2  3  1  0  0  0  0
  2 17  1  0  0  0  0
  3  4  1  0  0  0  0
  3 15  1  0  0  0  0
  3 16  1  0  0  0  0
  4  5  4  0  0  0  0
  4 10  4  0  0  0  0
  5  6  4  0  0  0  0
  5 28  1  0  0  0  0
  6  7  1  0  0  0  0
  6  8  4  0  0  0  0
  8  9  4  0  0  0  0
  8 29  1  0  0  0  0
  9 10  4  0  0  0  0
  9 30  1  0  0  0  0
 10 11  1  0  0  0  0
 11 12  2  0  0  0  0
 11 13  2  0  0  0  0
 11 14  1  0  0  0  0
 14 15  1  0  0  0  0
 14 31  1  0  0  0  0
 15 32  1  0  0  0  0
 15 33  1  0  0  0  0
 16 34  1  0  0  0  0
 16 35  1  0  0  0  0
 16 36  1  0  0  0  0
 17 18  1  0  0  0  0
 17 37  1  0  0  0  0
 18 19  4  0  0  0  0
 18 27  4  0  0  0  0
 19 20  1  0  0  0  0
 19 24  4  0  0  0  0
 20 21  1  0  0  0  0
 20 38  1  0  0  0  0
 20 39  1  0  0  0  0
 21 22  1  0  0  0  0
 21 40  1  0  0  0  0
 21 41  1  0  0  0  0
 22 23  1  0  0  0  0
 22 42  1  0  0  0  0
 22 43  1  0  0  0  0
 23 24  1  0  0  0  0
 23 44  1  0  0  0  0
 23 45  1  0  0  0  0
 24 25  4  0  0  0  0
 25 26  4  0  0  0  0
 25 46  1  0  0  0  0
 26 27  4  0  0  0  0
 27 47  1  0  0  0  0
M  END
$$$$
