
     RDKit          3D

 55 60  0  0  0  0  0  0  0  0999 V2000
    8.9272   -2.7450   23.6847 C   0  0  0  0  0  0  0  0  0  0  0  0
    8.9801   -1.7672   22.5198 C   0  0  1  0  0  0  0  0  0  0  0  0
    7.6478   -1.5494   21.7932 C   0  0  0  0  0  0  0  0  0  0  0  0
    7.8763   -0.2968   21.1108 N   0  0  0  0  0  0  0  0  0  0  0  0
    6.9972    0.1706   20.1026 C   0  0  0  0  0  0  0  0  0  0  0  0
    7.2023   -0.2023   18.7955 C   0  0  0  0  0  0  0  0  0  0  0  0
    6.4025    0.1507   17.7601 N   0  0  0  0  0  0  0  0  0  0  0  0
    5.3599    0.9053   18.0125 C   0  0  0  0  0  0  0  0  0  0  0  0
    5.0462    1.3834   19.3177 C   0  0  0  0  0  0  0  0  0  0  0  0
    3.9395    2.2431   19.5412 C   0  0  0  0  0  0  0  0  0  0  0  0
    3.6132    2.6514   20.8033 C   0  0  0  0  0  0  0  0  0  0  0  0
    4.3745    2.2003   21.9026 C   0  0  0  0  0  0  0  0  0  0  0  0
    5.4837    1.4117   21.7123 C   0  0  0  0  0  0  0  0  0  0  0  0
    5.8550    0.9837   20.4060 C   0  0  0  0  0  0  0  0  0  0  0  0
    8.8537    0.4720   21.7110 C   0  0  0  0  0  0  0  0  0  0  0  0
    9.1555    1.5921   21.3717 O   0  0  0  0  0  0  0  0  0  0  0  0
    9.4871   -0.3443   22.8664 C   0  0  1  0  0  0  0  0  0  0  0  0
    8.9363    0.1744   24.2184 C   0  0  0  0  0  0  0  0  0  0  0  0
    9.4004    1.5221   24.5152 N   0  0  0  0  0  0  0  0  0  0  0  0
    8.5259    2.4262   25.2234 C   0  0  0  0  0  0  0  0  0  0  0  0
    7.7341    3.3570   24.3401 C   0  0  0  0  0  0  0  0  0  0  0  0
    8.1186    4.0306   23.2264 C   0  0  0  0  0  0  0  0  0  0  0  0
    7.0691    4.8049   22.8255 O   0  0  0  0  0  0  0  0  0  0  0  0
    6.0921    4.5383   23.7086 C   0  0  0  0  0  0  0  0  0  0  0  0
    6.4128    3.6850   24.6241 N   0  0  0  0  0  0  0  0  0  0  0  0
   10.6097    2.0098   24.1179 C   0  0  0  0  0  0  0  0  0  0  0  0
   10.9258    3.1893   24.2565 O   0  0  0  0  0  0  0  0  0  0  0  0
   11.5198    1.0068   23.4929 C   0  0  0  0  0  0  0  0  0  0  0  0
   12.8800    1.3132   23.4274 C   0  0  0  0  0  0  0  0  0  0  0  0
   13.7648    0.4151   22.8620 C   0  0  0  0  0  0  0  0  0  0  0  0
   13.2533   -0.7818   22.3749 C   0  0  0  0  0  0  0  0  0  0  0  0
   14.0976   -1.6609   21.8051 F   0  0  0  0  0  0  0  0  0  0  0  0
   11.9122   -1.1093   22.4408 C   0  0  0  0  0  0  0  0  0  0  0  0
   10.9995   -0.1752   22.9412 C   0  0  0  0  0  0  0  0  0  0  0  0
    9.8950   -2.8009   24.1962 H   0  0  0  0  0  0  0  0  0  0  0  0
    8.6598   -3.7544   23.3639 H   0  0  0  0  0  0  0  0  0  0  0  0
    8.1775   -2.4419   24.4233 H   0  0  0  0  0  0  0  0  0  0  0  0
    9.6698   -2.1381   21.7558 H   0  0  0  0  0  0  0  0  0  0  0  0
    6.8037   -1.4729   22.4962 H   0  0  0  0  0  0  0  0  0  0  0  0
    7.4015   -2.3391   21.0786 H   0  0  0  0  0  0  0  0  0  0  0  0
    8.0828   -0.7839   18.5269 H   0  0  0  0  0  0  0  0  0  0  0  0
    4.7216    1.1974   17.1749 H   0  0  0  0  0  0  0  0  0  0  0  0
    3.3674    2.5757   18.6832 H   0  0  0  0  0  0  0  0  0  0  0  0
    2.7773    3.3289   20.9607 H   0  0  0  0  0  0  0  0  0  0  0  0
    4.0826    2.4842   22.9088 H   0  0  0  0  0  0  0  0  0  0  0  0
    6.0823    1.1063   22.5644 H   0  0  0  0  0  0  0  0  0  0  0  0
    9.2559   -0.5163   25.0100 H   0  0  0  0  0  0  0  0  0  0  0  0
    7.8408    0.1963   24.1985 H   0  0  0  0  0  0  0  0  0  0  0  0
    9.1537    2.9955   25.9150 H   0  0  0  0  0  0  0  0  0  0  0  0
    7.8478    1.8301   25.8371 H   0  0  0  0  0  0  0  0  0  0  0  0
    9.0072    4.0777   22.6151 H   0  0  0  0  0  0  0  0  0  0  0  0
    5.1400    5.0341   23.5451 H   0  0  0  0  0  0  0  0  0  0  0  0
   13.2101    2.2807   23.7919 H   0  0  0  0  0  0  0  0  0  0  0  0
   14.8266    0.6137   22.7520 H   0  0  0  0  0  0  0  0  0  0  0  0
   11.6095   -2.0784   22.0626 H   0  0  0  0  0  0  0  0  0  0  0  0
  1  2  1  0
  2  3  1  0
  3  4  1  0
  4  5  1  0
  5  6  2  0
  6  7  1  0
  7  8  2  0
  8  9  1  0
  9 10  2  0
 10 11  1  0
 11 12  2  0
 12 13  1  0
 13 14  2  0
  4 15  1  0
 15 16  2  0
 15 17  1  0
 17 18  1  1
 18 19  1  0
 19 20  1  0
 20 21  1  0
 21 22  2  0
 22 23  1  0
 23 24  1  0
 24 25  2  0
 19 26  1  0
 26 27  2  0
 26 28  1  0
 28 29  2  0
 29 30  1  0
 30 31  2  0
 31 32  1  0
 31 33  1  0
 33 34  2  0
 17  2  1  0
 25 21  1  0
 34 28  1  0
 14  5  1  0
 34 17  1  0
 14  9  1  0
  1 35  1  0
  1 36  1  0
  1 37  1  0
  2 38  1  6
  3 39  1  0
  3 40  1  0
  6 41  1  0
  8 42  1  0
 10 43  1  0
 11 44  1  0
 12 45  1  0
 13 46  1  0
 18 47  1  0
 18 48  1  0
 20 49  1  0
 20 50  1  0
 22 51  1  0
 24 52  1  0
 29 53  1  0
 30 54  1  0
 33 55  1  0
M  END
$$$$
