mobile
  PyMOL3.1          3D                             0

 53 57  0  0  0  0  0  0  0  0999 V2000
  -10.6890    1.9595  -24.5824 O   0  0  0  0  0  0  0  0  0  0  0  0
  -10.2754    0.8573  -24.2819 C   0  0  0  0  0  0  0  0  0  0  0  0
   -8.9920    0.4798  -24.5135 N   0  0  0  0  0  0  0  0  0  0  0  0
   -8.1165    1.3165  -25.3134 C   0  0  0  0  0  0  0  0  0  0  0  0
   -7.5021    2.5195  -24.6103 C   0  0  0  0  0  0  0  0  0  0  0  0
   -6.8214    3.3215  -25.2440 O   0  0  0  0  0  0  0  0  0  0  0  0
   -7.7043    2.6482  -23.3044 N   0  0  0  0  0  0  0  0  0  0  0  0
   -6.9620    3.5984  -22.4964 C   0  0  0  0  0  0  0  0  0  0  0  0
  -11.1360   -0.1281  -23.6083 C   0  0  0  0  0  0  0  0  0  0  0  0
  -12.5060    0.1131  -23.5465 C   0  0  0  0  0  0  0  0  0  0  0  0
  -13.3397   -0.7595  -22.8752 C   0  0  0  0  0  0  0  0  0  0  0  0
  -12.8018   -1.8806  -22.2845 C   0  0  0  0  0  0  0  0  0  0  0  0
  -13.8426   -2.9362  -21.3758 Cl  0  0  0  0  0  0  0  0  0  0  0  0
  -11.4504   -2.1685  -22.3520 C   0  0  0  0  0  0  0  0  0  0  0  0
  -10.6000   -1.2719  -22.9943 C   0  0  0  0  0  0  0  0  0  0  0  0
   -9.0783   -1.4103  -22.8973 C   0  0  0  0  0  0  0  0  0  0  0  0
   -8.5194   -0.8804  -24.2447 C   0  0  0  0  0  0  0  0  0  0  0  0
   -8.4914   -0.5671  -21.7560 C   0  0  0  0  0  0  0  0  0  0  0  0
   -8.8550    0.5448  -21.4244 O   0  0  0  0  0  0  0  0  0  0  0  0
   -7.4655   -1.2639  -21.1931 N   0  0  0  0  0  0  0  0  0  0  0  0
   -7.2497   -2.5740  -21.8311 C   0  0  0  0  0  0  0  0  0  0  0  0
   -8.5715   -2.8344  -22.5557 C   0  0  0  0  0  0  0  0  0  0  0  0
   -6.6487   -0.7915  -20.1150 C   0  0  0  0  0  0  0  0  0  0  0  0
   -5.5389    0.0641  -20.3908 C   0  0  0  0  0  0  0  0  0  0  0  0
   -5.1550    0.4507  -21.7018 C   0  0  0  0  0  0  0  0  0  0  0  0
   -4.0902    1.2918  -21.8713 C   0  0  0  0  0  0  0  0  0  0  0  0
   -3.7170    1.8614  -23.4765 Cl  0  0  0  0  0  0  0  0  0  0  0  0
   -3.3443    1.7661  -20.8028 C   0  0  0  0  0  0  0  0  0  0  0  0
   -3.6914    1.4159  -19.5296 C   0  0  0  0  0  0  0  0  0  0  0  0
   -4.7936    0.5640  -19.2846 C   0  0  0  0  0  0  0  0  0  0  0  0
   -5.2043    0.1746  -17.9822 C   0  0  0  0  0  0  0  0  0  0  0  0
   -6.2393   -0.6144  -17.7298 N   0  0  0  0  0  0  0  0  0  0  0  0
   -6.9288   -1.0788  -18.7832 C   0  0  0  0  0  0  0  0  0  0  0  0
   -7.2933    0.6860  -25.6794 H   0  0  0  0  0  0  0  0  0  0  0  0
   -8.6997    1.6907  -26.1686 H   0  0  0  0  0  0  0  0  0  0  0  0
   -8.3922    2.0720  -22.8635 H   0  0  0  0  0  0  0  0  0  0  0  0
   -7.2951    3.5311  -21.4504 H   0  0  0  0  0  0  0  0  0  0  0  0
   -5.8876    3.3680  -22.5550 H   0  0  0  0  0  0  0  0  0  0  0  0
   -7.1395    4.6169  -22.8724 H   0  0  0  0  0  0  0  0  0  0  0  0
  -12.9193    0.9883  -24.0276 H   0  0  0  0  0  0  0  0  0  0  0  0
  -14.3992   -0.5637  -22.8127 H   0  0  0  0  0  0  0  0  0  0  0  0
  -11.0603   -3.0750  -21.9130 H   0  0  0  0  0  0  0  0  0  0  0  0
   -7.4198   -0.8763  -24.2013 H   0  0  0  0  0  0  0  0  0  0  0  0
   -8.8513   -1.5432  -25.0580 H   0  0  0  0  0  0  0  0  0  0  0  0
   -6.4119   -2.5333  -22.5414 H   0  0  0  0  0  0  0  0  0  0  0  0
   -7.0542   -3.3517  -21.0773 H   0  0  0  0  0  0  0  0  0  0  0  0
   -9.2834   -3.3598  -21.9020 H   0  0  0  0  0  0  0  0  0  0  0  0
   -8.4099   -3.4241  -23.4702 H   0  0  0  0  0  0  0  0  0  0  0  0
   -5.7004    0.0835  -22.5585 H   0  0  0  0  0  0  0  0  0  0  0  0
   -2.4940    2.4081  -20.9760 H   0  0  0  0  0  0  0  0  0  0  0  0
   -3.1168    1.7956  -18.6974 H   0  0  0  0  0  0  0  0  0  0  0  0
   -4.6356    0.5451  -17.1420 H   0  0  0  0  0  0  0  0  0  0  0  0
   -7.7685   -1.7271  -18.5807 H   0  0  0  0  0  0  0  0  0  0  0  0
  1  2  2  0  0  0  0
  2  3  1  0  0  0  0
  2  9  1  0  0  0  0
  3  4  1  0  0  0  0
  3 17  1  0  0  0  0
  4  5  1  0  0  0  0
  4 34  1  0  0  0  0
  4 35  1  0  0  0  0
  5  6  2  0  0  0  0
  5  7  1  0  0  0  0
  7  8  1  0  0  0  0
  7 36  1  0  0  0  0
  8 37  1  0  0  0  0
  8 38  1  0  0  0  0
  8 39  1  0  0  0  0
  9 10  4  0  0  0  0
  9 15  4  0  0  0  0
 10 11  4  0  0  0  0
 10 40  1  0  0  0  0
 11 12  4  0  0  0  0
 11 41  1  0  0  0  0
 12 13  1  0  0  0  0
 12 14  4  0  0  0  0
 14 15  4  0  0  0  0
 14 42  1  0  0  0  0
 15 16  1  0  0  0  0
 16 17  1  0  0  0  0
 16 18  1  0  0  0  0
 16 22  1  0  0  0  0
 17 43  1  0  0  0  0
 17 44  1  0  0  0  0
 18 19  2  0  0  0  0
 18 20  1  0  0  0  0
 20 21  1  0  0  0  0
 20 23  1  0  0  0  0
 21 22  1  0  0  0  0
 21 45  1  0  0  0  0
 21 46  1  0  0  0  0
 22 47  1  0  0  0  0
 22 48  1  0  0  0  0
 23 24  4  0  0  0  0
 23 33  4  0  0  0  0
 24 25  4  0  0  0  0
 24 30  4  0  0  0  0
 25 26  4  0  0  0  0
 25 49  1  0  0  0  0
 26 27  1  0  0  0  0
 26 28  4  0  0  0  0
 28 29  4  0  0  0  0
 28 50  1  0  0  0  0
 29 30  4  0  0  0  0
 29 51  1  0  0  0  0
 30 31  4  0  0  0  0
 31 32  4  0  0  0  0
 31 52  1  0  0  0  0
 32 33  4  0  0  0  0
 33 53  1  0  0  0  0
M  END
$$$$
