
     RDKit          3D

 55 60  0  0  0  0  0  0  0  0999 V2000
   -8.4251   -3.8506  -23.6914 C   0  0  0  0  0  0  0  0  0  0  0  0
   -8.5216   -2.8478  -22.5534 C   0  0  1  0  0  0  0  0  0  0  0  0
   -7.2044   -2.5834  -21.8144 C   0  0  0  0  0  0  0  0  0  0  0  0
   -7.4920   -1.3380  -21.1321 N   0  0  0  0  0  0  0  0  0  0  0  0
   -6.6424   -0.8200  -20.1173 C   0  0  0  0  0  0  0  0  0  0  0  0
   -6.8577   -1.1885  -18.8104 C   0  0  0  0  0  0  0  0  0  0  0  0
   -6.0696   -0.8282  -17.7692 N   0  0  0  0  0  0  0  0  0  0  0  0
   -5.0400   -0.0602  -18.0259 C   0  0  0  0  0  0  0  0  0  0  0  0
   -4.7176    0.4239  -19.3247 C   0  0  0  0  0  0  0  0  0  0  0  0
   -3.6464    1.3341  -19.5272 C   0  0  0  0  0  0  0  0  0  0  0  0
   -3.3304    1.7539  -20.7877 C   0  0  0  0  0  0  0  0  0  0  0  0
   -4.0566    1.2773  -21.9019 C   0  0  0  0  0  0  0  0  0  0  0  0
   -5.1407    0.4481  -21.7251 C   0  0  0  0  0  0  0  0  0  0  0  0
   -5.5118    0.0111  -20.4213 C   0  0  0  0  0  0  0  0  0  0  0  0
   -8.4800   -0.5960  -21.7582 C   0  0  0  0  0  0  0  0  0  0  0  0
   -8.8073    0.5185  -21.4372 O   0  0  0  0  0  0  0  0  0  0  0  0
   -9.0576   -1.4420  -22.9305 C   0  0  1  0  0  0  0  0  0  0  0  0
   -8.4797   -0.9070  -24.2730 C   0  0  0  0  0  0  0  0  0  0  0  0
   -8.9457    0.4387  -24.5655 N   0  0  0  0  0  0  0  0  0  0  0  0
   -8.1346    1.3492  -25.3543 C   0  0  0  0  0  0  0  0  0  0  0  0
   -7.6403    2.5253  -24.5541 C   0  0  0  0  0  0  0  0  0  0  0  0
   -7.4896    3.8783  -24.8960 C   0  0  0  0  0  0  0  0  0  0  0  0
   -6.9623    4.5339  -23.8630 N   0  0  0  0  0  0  0  0  0  0  0  0
   -6.8086    3.5851  -22.9634 N   0  0  0  0  0  0  0  0  0  0  0  0
   -7.1843    2.3647  -23.3102 N   0  0  0  0  0  0  0  0  0  0  0  0
  -10.1878    0.8853  -24.2121 C   0  0  0  0  0  0  0  0  0  0  0  0
  -10.5410    2.0448  -24.3899 O   0  0  0  0  0  0  0  0  0  0  0  0
  -11.0930   -0.1411  -23.6033 C   0  0  0  0  0  0  0  0  0  0  0  0
  -12.4614    0.1284  -23.5893 C   0  0  0  0  0  0  0  0  0  0  0  0
  -13.3503   -0.8001  -23.0898 C   0  0  0  0  0  0  0  0  0  0  0  0
  -12.8289   -2.0017  -22.6257 C   0  0  0  0  0  0  0  0  0  0  0  0
  -13.6900   -2.9109  -22.1362 F   0  0  0  0  0  0  0  0  0  0  0  0
  -11.4788   -2.2991  -22.6252 C   0  0  0  0  0  0  0  0  0  0  0  0
  -10.5692   -1.3226  -23.0550 C   0  0  0  0  0  0  0  0  0  0  0  0
   -8.1366   -4.8446  -23.3368 H   0  0  0  0  0  0  0  0  0  0  0  0
   -9.3851   -3.9366  -24.2097 H   0  0  0  0  0  0  0  0  0  0  0  0
   -7.6785   -3.5315  -24.4252 H   0  0  0  0  0  0  0  0  0  0  0  0
   -9.1999   -3.2352  -21.7834 H   0  0  0  0  0  0  0  0  0  0  0  0
   -6.9631   -3.3577  -21.0818 H   0  0  0  0  0  0  0  0  0  0  0  0
   -6.3496   -2.4938  -22.5105 H   0  0  0  0  0  0  0  0  0  0  0  0
   -7.7147   -1.8140  -18.5622 H   0  0  0  0  0  0  0  0  0  0  0  0
   -4.3994    0.2303  -17.1923 H   0  0  0  0  0  0  0  0  0  0  0  0
   -3.0986    1.6890  -18.6565 H   0  0  0  0  0  0  0  0  0  0  0  0
   -2.5173    2.4565  -20.9407 H   0  0  0  0  0  0  0  0  0  0  0  0
   -3.7732    1.5926  -22.9040 H   0  0  0  0  0  0  0  0  0  0  0  0
   -5.7419    0.1717  -22.5874 H   0  0  0  0  0  0  0  0  0  0  0  0
   -7.3852   -0.8862  -24.2257 H   0  0  0  0  0  0  0  0  0  0  0  0
   -8.7759   -1.5921  -25.0785 H   0  0  0  0  0  0  0  0  0  0  0  0
   -8.7003    1.6938  -26.2265 H   0  0  0  0  0  0  0  0  0  0  0  0
   -7.2798    0.7830  -25.7405 H   0  0  0  0  0  0  0  0  0  0  0  0
   -7.7331    4.3963  -25.8154 H   0  0  0  0  0  0  0  0  0  0  0  0
   -6.4322    3.7850  -22.0470 H   0  0  0  0  0  0  0  0  0  0  0  0
  -12.8025    1.0825  -23.9726 H   0  0  0  0  0  0  0  0  0  0  0  0
  -14.4226   -0.6287  -23.0574 H   0  0  0  0  0  0  0  0  0  0  0  0
  -11.1762   -3.2857  -22.2824 H   0  0  0  0  0  0  0  0  0  0  0  0
  1  2  1  0
  2  3  1  0
  3  4  1  0
  4  5  1  0
  5  6  2  0
  6  7  1  0
  7  8  2  0
  8  9  1  0
  9 10  2  0
 10 11  1  0
 11 12  2  0
 12 13  1  0
 13 14  2  0
  4 15  1  0
 15 16  2  0
 15 17  1  0
 17 18  1  6
 18 19  1  0
 19 20  1  0
 20 21  1  0
 21 22  1  0
 22 23  2  0
 23 24  1  0
 24 25  1  0
 19 26  1  0
 26 27  2  0
 26 28  1  0
 28 29  2  0
 29 30  1  0
 30 31  2  0
 31 32  1  0
 31 33  1  0
 33 34  2  0
 17  2  1  0
 25 21  2  0
 34 28  1  0
 14  5  1  0
 34 17  1  0
 14  9  1  0
  1 35  1  0
  1 36  1  0
  1 37  1  0
  2 38  1  1
  3 39  1  0
  3 40  1  0
  6 41  1  0
  8 42  1  0
 10 43  1  0
 11 44  1  0
 12 45  1  0
 13 46  1  0
 18 47  1  0
 18 48  1  0
 20 49  1  0
 20 50  1  0
 22 51  1  0
 24 52  1  0
 29 53  1  0
 30 54  1  0
 33 55  1  0
M  END
