
     RDKit          3D

 44 47  0  0  0  0  0  0  0  0999 V2000
   -9.2598   -0.9545  -20.9266 O   0  0  0  0  0  0  0  0  0  0  0  0
   -8.5366   -1.4715  -21.7496 C   0  0  0  0  0  0  0  0  0  0  0  0
   -7.1405   -1.9520  -21.3575 C   0  0  0  0  0  0  0  0  0  0  0  0
   -6.4401   -1.1632  -20.2638 C   0  0  0  0  0  0  0  0  0  0  0  0
   -6.8165   -1.3420  -18.9519 C   0  0  0  0  0  0  0  0  0  0  0  0
   -6.1710   -0.8360  -17.8702 N   0  0  0  0  0  0  0  0  0  0  0  0
   -5.1141   -0.0982  -18.1006 C   0  0  0  0  0  0  0  0  0  0  0  0
   -4.6405    0.2337  -19.3975 C   0  0  0  0  0  0  0  0  0  0  0  0
   -3.5279    1.0906  -19.5889 C   0  0  0  0  0  0  0  0  0  0  0  0
   -3.1097    1.4131  -20.8492 C   0  0  0  0  0  0  0  0  0  0  0  0
   -3.7933    0.8957  -21.9713 C   0  0  0  0  0  0  0  0  0  0  0  0
   -4.8805    0.0702  -21.8110 C   0  0  0  0  0  0  0  0  0  0  0  0
   -5.3319   -0.2967  -20.5161 C   0  0  0  0  0  0  0  0  0  0  0  0
   -8.9831   -1.7409  -23.0530 N   0  0  0  0  0  0  0  0  0  0  0  0
   -8.2553   -1.0910  -24.1489 C   0  0  0  0  0  0  0  0  0  0  0  0
   -8.5456    0.4151  -24.1631 C   0  0  0  0  0  0  0  0  0  0  0  0
  -10.0539    0.7059  -24.2310 C   0  0  0  0  0  0  0  0  0  0  0  0
  -10.3174    2.1836  -24.0206 C   0  0  0  0  0  0  0  0  0  0  0  0
  -10.1307    3.2544  -25.0528 C   0  0  0  0  0  0  0  0  0  0  0  0
  -11.5145    2.8902  -24.5876 C   0  0  0  0  0  0  0  0  0  0  0  0
  -10.8442   -0.1001  -23.1958 C   0  0  0  0  0  0  0  0  0  0  0  0
  -10.4302   -1.5677  -23.2403 C   0  0  0  0  0  0  0  0  0  0  0  0
   -7.3335   -2.9653  -20.9687 H   0  0  0  0  0  0  0  0  0  0  0  0
   -6.5238   -2.0819  -22.2504 H   0  0  0  0  0  0  0  0  0  0  0  0
   -7.6990   -1.9374  -18.7248 H   0  0  0  0  0  0  0  0  0  0  0  0
   -4.5797    0.2868  -17.2332 H   0  0  0  0  0  0  0  0  0  0  0  0
   -3.0287    1.4883  -18.7093 H   0  0  0  0  0  0  0  0  0  0  0  0
   -2.2633    2.0782  -20.9943 H   0  0  0  0  0  0  0  0  0  0  0  0
   -3.4603    1.1635  -22.9676 H   0  0  0  0  0  0  0  0  0  0  0  0
   -5.3978   -0.3061  -22.6894 H   0  0  0  0  0  0  0  0  0  0  0  0
   -8.5989   -1.5593  -25.0792 H   0  0  0  0  0  0  0  0  0  0  0  0
   -7.1823   -1.2880  -24.0516 H   0  0  0  0  0  0  0  0  0  0  0  0
   -8.0287    0.9049  -24.9958 H   0  0  0  0  0  0  0  0  0  0  0  0
   -8.1272    0.8519  -23.2476 H   0  0  0  0  0  0  0  0  0  0  0  0
  -10.4074    0.3462  -25.2049 H   0  0  0  0  0  0  0  0  0  0  0  0
  -10.0328    2.4790  -23.0083 H   0  0  0  0  0  0  0  0  0  0  0  0
   -9.8232    2.9827  -26.0586 H   0  0  0  0  0  0  0  0  0  0  0  0
   -9.7154    4.1955  -24.7071 H   0  0  0  0  0  0  0  0  0  0  0  0
  -12.1495    2.3377  -25.2757 H   0  0  0  0  0  0  0  0  0  0  0  0
  -12.0491    3.5899  -23.9500 H   0  0  0  0  0  0  0  0  0  0  0  0
  -11.9190   -0.0213  -23.4039 H   0  0  0  0  0  0  0  0  0  0  0  0
  -10.6599    0.3018  -22.1943 H   0  0  0  0  0  0  0  0  0  0  0  0
  -10.9724   -2.1469  -22.4838 H   0  0  0  0  0  0  0  0  0  0  0  0
  -10.6589   -1.9873  -24.2348 H   0  0  0  0  0  0  0  0  0  0  0  0
  1  2  2  0
  2  3  1  0
  3  4  1  0
  4  5  2  0
  5  6  1  0
  6  7  2  0
  7  8  1  0
  8  9  2  0
  9 10  1  0
 10 11  2  0
 11 12  1  0
 12 13  2  0
  2 14  1  0
 14 15  1  0
 15 16  1  0
 16 17  1  0
 17 18  1  0
 18 19  1  0
 19 20  1  0
 17 21  1  0
 21 22  1  0
 13  4  1  0
 22 14  1  0
 13  8  1  0
 20 18  1  0
  3 23  1  0
  3 24  1  0
  5 25  1  0
  7 26  1  0
  9 27  1  0
 10 28  1  0
 11 29  1  0
 12 30  1  0
 15 31  1  0
 15 32  1  0
 16 33  1  0
 16 34  1  0
 17 35  1  0
 18 36  1  0
 19 37  1  0
 19 38  1  0
 20 39  1  0
 20 40  1  0
 21 41  1  0
 21 42  1  0
 22 43  1  0
 22 44  1  0
M  END
