
     RDKit          3D

 44 47  0  0  0  0  0  0  0  0999 V2000
    9.5278    0.1003   20.8289 O   0  0  0  0  0  0  0  0  0  0  0  0
    8.8343   -0.4249   21.6721 C   0  0  0  0  0  0  0  0  0  0  0  0
    7.4475   -0.9542   21.3111 C   0  0  0  0  0  0  0  0  0  0  0  0
    6.7055   -0.2053   20.2168 C   0  0  0  0  0  0  0  0  0  0  0  0
    7.0659   -0.3941   18.9018 C   0  0  0  0  0  0  0  0  0  0  0  0
    6.3876    0.0740   17.8231 N   0  0  0  0  0  0  0  0  0  0  0  0
    5.3124    0.7829   18.0593 C   0  0  0  0  0  0  0  0  0  0  0  0
    4.8499    1.1215   19.3584 C   0  0  0  0  0  0  0  0  0  0  0  0
    3.7147    1.9471   19.5547 C   0  0  0  0  0  0  0  0  0  0  0  0
    3.3072    2.2774   20.8165 C   0  0  0  0  0  0  0  0  0  0  0  0
    4.0246    1.7998   21.9351 C   0  0  0  0  0  0  0  0  0  0  0  0
    5.1339    1.0053   21.7699 C   0  0  0  0  0  0  0  0  0  0  0  0
    5.5753    0.6310   20.4737 C   0  0  0  0  0  0  0  0  0  0  0  0
    9.3100   -0.6589   22.9720 N   0  0  0  0  0  0  0  0  0  0  0  0
    8.5804   -0.0135   24.0693 C   0  0  0  0  0  0  0  0  0  0  0  0
    8.8243    1.5007   24.0546 C   0  0  0  0  0  0  0  0  0  0  0  0
   10.3239    1.8385   24.0926 C   0  0  0  0  0  0  0  0  0  0  0  0
   10.5383    3.3199   23.8542 C   0  0  0  0  0  0  0  0  0  0  0  0
   10.3355    4.4014   24.8721 C   0  0  0  0  0  0  0  0  0  0  0  0
   11.7221    4.0720   24.3897 C   0  0  0  0  0  0  0  0  0  0  0  0
   11.1217    1.0401   23.0573 C   0  0  0  0  0  0  0  0  0  0  0  0
   10.7539   -0.4386   23.1322 C   0  0  0  0  0  0  0  0  0  0  0  0
    7.6653   -1.9674   20.9354 H   0  0  0  0  0  0  0  0  0  0  0  0
    6.8496   -1.0881   22.2162 H   0  0  0  0  0  0  0  0  0  0  0  0
    7.9625   -0.9660   18.6695 H   0  0  0  0  0  0  0  0  0  0  0  0
    4.7524    1.1370   17.1949 H   0  0  0  0  0  0  0  0  0  0  0  0
    3.1892    2.3148   18.6773 H   0  0  0  0  0  0  0  0  0  0  0  0
    2.4432    2.9187   20.9650 H   0  0  0  0  0  0  0  0  0  0  0  0
    3.6997    2.0737   22.9324 H   0  0  0  0  0  0  0  0  0  0  0  0
    5.6767    0.6595   22.6454 H   0  0  0  0  0  0  0  0  0  0  0  0
    8.9533   -0.4557   25.0011 H   0  0  0  0  0  0  0  0  0  0  0  0
    7.5125   -0.2448   23.9931 H   0  0  0  0  0  0  0  0  0  0  0  0
    8.3062    1.9882   24.8878 H   0  0  0  0  0  0  0  0  0  0  0  0
    8.3779    1.9094   23.1393 H   0  0  0  0  0  0  0  0  0  0  0  0
   10.7040    1.5059   25.0660 H   0  0  0  0  0  0  0  0  0  0  0  0
   10.2283    3.5897   22.8422 H   0  0  0  0  0  0  0  0  0  0  0  0
   10.0528    4.1371   25.8871 H   0  0  0  0  0  0  0  0  0  0  0  0
    9.8858    5.3236   24.5183 H   0  0  0  0  0  0  0  0  0  0  0  0
   12.3849    3.5506   25.0758 H   0  0  0  0  0  0  0  0  0  0  0  0
   12.2245    4.7771   23.7321 H   0  0  0  0  0  0  0  0  0  0  0  0
   12.1968    1.1551   23.2461 H   0  0  0  0  0  0  0  0  0  0  0  0
   10.9089    1.4196   22.0527 H   0  0  0  0  0  0  0  0  0  0  0  0
   11.3013   -1.0133   22.3761 H   0  0  0  0  0  0  0  0  0  0  0  0
   11.0115   -0.8345   24.1294 H   0  0  0  0  0  0  0  0  0  0  0  0
  1  2  2  0
  2  3  1  0
  3  4  1  0
  4  5  2  0
  5  6  1  0
  6  7  2  0
  7  8  1  0
  8  9  2  0
  9 10  1  0
 10 11  2  0
 11 12  1  0
 12 13  2  0
  2 14  1  0
 14 15  1  0
 15 16  1  0
 16 17  1  0
 17 18  1  0
 18 19  1  0
 19 20  1  0
 17 21  1  0
 21 22  1  0
 13  4  1  0
 22 14  1  0
 13  8  1  0
 20 18  1  0
  3 23  1  0
  3 24  1  0
  5 25  1  0
  7 26  1  0
  9 27  1  0
 10 28  1  0
 11 29  1  0
 12 30  1  0
 15 31  1  0
 15 32  1  0
 16 33  1  0
 16 34  1  0
 17 35  1  0
 18 36  1  0
 19 37  1  0
 19 38  1  0
 20 39  1  0
 20 40  1  0
 21 41  1  0
 21 42  1  0
 22 43  1  0
 22 44  1  0
M  END
$$$$
