mobile
  PyMOL3.1          3D                             0

 69 73  0  0  0  0  0  0  0  0999 V2000
   -9.0714    0.2108  -21.1188 O   0  0  0  0  0  0  0  0  0  0  0  0
   -8.5837   -0.7873  -21.6323 C   0  0  0  0  0  0  0  0  0  0  0  0
   -7.3915   -1.2814  -21.2146 N   0  0  0  0  0  0  0  0  0  0  0  0
   -6.5951   -0.7989  -20.1503 C   0  0  0  0  0  0  0  0  0  0  0  0
   -5.4610    0.0213  -20.4511 C   0  0  0  0  0  0  0  0  0  0  0  0
   -5.0482    0.3465  -21.7695 C   0  0  0  0  0  0  0  0  0  0  0  0
   -3.9620    1.1474  -21.9894 C   0  0  0  0  0  0  0  0  0  0  0  0
   -3.2379    1.6673  -20.9253 C   0  0  0  0  0  0  0  0  0  0  0  0
   -3.5950    1.3846  -19.6381 C   0  0  0  0  0  0  0  0  0  0  0  0
   -4.7116    0.5565  -19.3640 C   0  0  0  0  0  0  0  0  0  0  0  0
   -5.1368    0.2417  -18.0539 C   0  0  0  0  0  0  0  0  0  0  0  0
   -6.1837   -0.5198  -17.7734 N   0  0  0  0  0  0  0  0  0  0  0  0
   -6.8766   -1.0220  -18.8046 C   0  0  0  0  0  0  0  0  0  0  0  0
   -9.3078   -1.5170  -22.7961 C   0  0  0  0  0  0  0  0  0  0  0  0
  -10.8074   -1.2064  -22.8191 C   0  0  0  0  0  0  0  0  0  0  0  0
  -11.6904   -1.9949  -22.0858 C   0  0  0  0  0  0  0  0  0  0  0  0
  -13.0168   -1.6243  -21.9905 C   0  0  0  0  0  0  0  0  0  0  0  0
  -14.0519   -2.4850  -20.8831 Cl  0  0  0  0  0  0  0  0  0  0  0  0
  -13.5161   -0.5237  -22.6539 C   0  0  0  0  0  0  0  0  0  0  0  0
  -12.6641    0.2420  -23.4280 C   0  0  0  0  0  0  0  0  0  0  0  0
  -11.3248   -0.0999  -23.5097 C   0  0  0  0  0  0  0  0  0  0  0  0
  -10.5591    0.7337  -24.2926 O   0  0  0  0  0  0  0  0  0  0  0  0
   -9.1282    0.5081  -24.3114 C   0  0  0  0  0  0  0  0  0  0  0  0
   -8.7366   -0.9411  -24.1113 C   0  0  0  0  0  0  0  0  0  0  0  0
   -9.1284   -3.0566  -22.7131 C   0  0  0  0  0  0  0  0  0  0  0  0
   -7.9207   -3.5988  -23.4447 C   0  0  0  0  0  0  0  0  0  0  0  0
   -6.8004   -3.4491  -22.9798 O   0  0  0  0  0  0  0  0  0  0  0  0
   -8.1300   -4.2872  -24.5884 N   0  0  0  0  0  0  0  0  0  0  0  0
   -7.6848   -3.7765  -25.8935 C   0  0  0  0  0  0  0  0  0  0  0  0
   -8.7548   -4.0163  -26.9587 C   0  0  0  0  0  0  0  0  0  0  0  0
   -8.6532   -5.6635  -24.5922 C   0  0  0  0  0  0  0  0  0  0  0  0
   -9.6754   -5.8586  -25.7217 C   0  0  0  0  0  0  0  0  0  0  0  0
   -9.1128   -5.4418  -27.0205 N   0  3  0  0  0  0  0  0  0  0  0  0
   -7.9711   -6.2744  -27.4358 C   0  0  0  0  0  0  0  0  0  0  0  0
   -7.9659   -6.6554  -28.9059 C   0  0  0  0  0  0  0  0  0  0  0  0
   -6.5956   -6.5702  -29.5563 C   0  0  0  0  0  0  0  0  0  0  0  0
   -6.3662   -5.2908  -30.1412 O   0  0  0  0  0  0  0  0  0  0  0  0
   -7.0382   -2.0728  -21.7134 H   0  0  0  0  0  0  0  0  0  0  0  0
   -5.6012   -0.0438  -22.6115 H   0  0  0  0  0  0  0  0  0  0  0  0
   -3.6640    1.3774  -23.0021 H   0  0  0  0  0  0  0  0  0  0  0  0
   -2.3842    2.3004  -21.1172 H   0  0  0  0  0  0  0  0  0  0  0  0
   -3.0216    1.7961  -18.8214 H   0  0  0  0  0  0  0  0  0  0  0  0
   -4.5702    0.6472  -17.2281 H   0  0  0  0  0  0  0  0  0  0  0  0
   -7.7237   -1.6513  -18.5727 H   0  0  0  0  0  0  0  0  0  0  0  0
  -11.3402   -2.8904  -21.5948 H   0  0  0  0  0  0  0  0  0  0  0  0
  -14.5605   -0.2625  -22.5707 H   0  0  0  0  0  0  0  0  0  0  0  0
  -13.0398    1.1008  -23.9636 H   0  0  0  0  0  0  0  0  0  0  0  0
   -8.7370    0.8421  -25.2841 H   0  0  0  0  0  0  0  0  0  0  0  0
   -8.6722    1.1055  -23.5085 H   0  0  0  0  0  0  0  0  0  0  0  0
   -9.1225   -1.5327  -24.9548 H   0  0  0  0  0  0  0  0  0  0  0  0
   -7.6396   -1.0125  -24.0841 H   0  0  0  0  0  0  0  0  0  0  0  0
   -9.0369   -3.3324  -21.6529 H   0  0  0  0  0  0  0  0  0  0  0  0
  -10.0256   -3.5281  -23.1392 H   0  0  0  0  0  0  0  0  0  0  0  0
   -7.4909   -2.6966  -25.8123 H   0  0  0  0  0  0  0  0  0  0  0  0
   -6.7591   -4.2934  -26.1875 H   0  0  0  0  0  0  0  0  0  0  0  0
   -9.6506   -3.4281  -26.7106 H   0  0  0  0  0  0  0  0  0  0  0  0
   -8.3671   -3.6985  -27.9381 H   0  0  0  0  0  0  0  0  0  0  0  0
   -7.8192   -6.3653  -24.7358 H   0  0  0  0  0  0  0  0  0  0  0  0
   -9.1410   -5.8659  -23.6264 H   0  0  0  0  0  0  0  0  0  0  0  0
   -9.9550   -6.9210  -25.7748 H   0  0  0  0  0  0  0  0  0  0  0  0
  -10.5695   -5.2549  -25.5069 H   0  0  0  0  0  0  0  0  0  0  0  0
   -9.8309   -5.5461  -27.7092 H   0  0  0  0  0  0  0  0  0  0  0  0
   -7.0455   -5.7183  -27.2219 H   0  0  0  0  0  0  0  0  0  0  0  0
   -7.9868   -7.2010  -26.8410 H   0  0  0  0  0  0  0  0  0  0  0  0
   -8.3283   -7.6903  -28.9980 H   0  0  0  0  0  0  0  0  0  0  0  0
   -8.6473   -5.9794  -29.4418 H   0  0  0  0  0  0  0  0  0  0  0  0
   -5.8258   -6.7551  -28.7916 H   0  0  0  0  0  0  0  0  0  0  0  0
   -6.5244   -7.3380  -30.3406 H   0  0  0  0  0  0  0  0  0  0  0  0
   -6.2765   -5.3840  -31.0822 H   0  0  0  0  0  0  0  0  0  0  0  0
  1  2  2  0  0  0  0
  2  3  1  0  0  0  0
  2 14  1  0  0  0  0
  3  4  1  0  0  0  0
  3 38  1  0  0  0  0
  4  5  4  0  0  0  0
  4 13  4  0  0  0  0
  5  6  4  0  0  0  0
  5 10  4  0  0  0  0
  6  7  4  0  0  0  0
  6 39  1  0  0  0  0
  7  8  4  0  0  0  0
  7 40  1  0  0  0  0
  8  9  4  0  0  0  0
  8 41  1  0  0  0  0
  9 10  4  0  0  0  0
  9 42  1  0  0  0  0
 10 11  4  0  0  0  0
 11 12  4  0  0  0  0
 11 43  1  0  0  0  0
 12 13  4  0  0  0  0
 13 44  1  0  0  0  0
 14 15  1  0  0  0  0
 14 24  1  0  0  0  0
 14 25  1  0  0  0  0
 15 16  4  0  0  0  0
 15 21  4  0  0  0  0
 16 17  4  0  0  0  0
 16 45  1  0  0  0  0
 17 18  1  0  0  0  0
 17 19  4  0  0  0  0
 19 20  4  0  0  0  0
 19 46  1  0  0  0  0
 20 21  4  0  0  0  0
 20 47  1  0  0  0  0
 21 22  1  0  0  0  0
 22 23  1  0  0  0  0
 23 24  1  0  0  0  0
 23 48  1  0  0  0  0
 23 49  1  0  0  0  0
 24 50  1  0  0  0  0
 24 51  1  0  0  0  0
 25 26  1  0  0  0  0
 25 52  1  0  0  0  0
 25 53  1  0  0  0  0
 26 27  2  0  0  0  0
 26 28  1  0  0  0  0
 28 29  1  0  0  0  0
 28 31  1  0  0  0  0
 29 30  1  0  0  0  0
 29 54  1  0  0  0  0
 29 55  1  0  0  0  0
 30 33  1  0  0  0  0
 30 56  1  0  0  0  0
 30 57  1  0  0  0  0
 31 32  1  0  0  0  0
 31 58  1  0  0  0  0
 31 59  1  0  0  0  0
 32 33  1  0  0  0  0
 32 60  1  0  0  0  0
 32 61  1  0  0  0  0
 33 34  1  0  0  0  0
 33 62  1  0  0  0  0
 34 35  1  0  0  0  0
 34 63  1  0  0  0  0
 34 64  1  0  0  0  0
 35 36  1  0  0  0  0
 35 65  1  0  0  0  0
 35 66  1  0  0  0  0
 36 37  1  0  0  0  0
 36 67  1  0  0  0  0
 36 68  1  0  0  0  0
 37 69  1  0  0  0  0
M  END
$$$$
