
     RDKit          3D

 59 64  0  0  0  0  0  0  0  0999 V2000
   -8.4204   -3.8266  -23.7158 C   0  0  0  0  0  0  0  0  0  0  0  0
   -8.5153   -2.8245  -22.5754 C   0  0  1  0  0  0  0  0  0  0  0  0
   -7.2011   -2.5793  -21.8242 C   0  0  0  0  0  0  0  0  0  0  0  0
   -7.4873   -1.3389  -21.1271 N   0  0  0  0  0  0  0  0  0  0  0  0
   -6.6282   -0.8289  -20.1116 C   0  0  0  0  0  0  0  0  0  0  0  0
   -6.8502   -1.1878  -18.8028 C   0  0  0  0  0  0  0  0  0  0  0  0
   -6.0655   -0.8226  -17.7593 N   0  0  0  0  0  0  0  0  0  0  0  0
   -5.0405   -0.0510  -18.0204 C   0  0  0  0  0  0  0  0  0  0  0  0
   -4.7097    0.4220  -19.3208 C   0  0  0  0  0  0  0  0  0  0  0  0
   -3.6417    1.3361  -19.5205 C   0  0  0  0  0  0  0  0  0  0  0  0
   -3.3206    1.7525  -20.7779 C   0  0  0  0  0  0  0  0  0  0  0  0
   -4.0297    1.2622  -21.8944 C   0  0  0  0  0  0  0  0  0  0  0  0
   -5.0975    0.4120  -21.7244 C   0  0  0  0  0  0  0  0  0  0  0  0
   -5.4937   -0.0057  -20.4205 C   0  0  0  0  0  0  0  0  0  0  0  0
   -8.4759   -0.5947  -21.7409 C   0  0  0  0  0  0  0  0  0  0  0  0
   -8.7900    0.5328  -21.4248 O   0  0  0  0  0  0  0  0  0  0  0  0
   -9.0608   -1.4157  -22.9234 C   0  0  1  0  0  0  0  0  0  0  0  0
   -8.5048   -0.8051  -24.2410 C   0  0  0  0  0  0  0  0  0  0  0  0
   -8.9320    0.5808  -24.4067 N   0  0  0  0  0  0  0  0  0  0  0  0
   -8.1617    1.3830  -25.3665 C   0  0  0  0  0  0  0  0  0  0  0  0
   -8.1907    2.8768  -25.1717 C   0  0  0  0  0  0  0  0  0  0  0  0
   -8.6111    3.7090  -26.0937 N   0  0  0  0  0  0  0  0  0  0  0  0
   -8.5648    4.9495  -25.5071 C   0  0  0  0  0  0  0  0  0  0  0  0
   -8.0826    4.8520  -24.2298 C   0  0  0  0  0  0  0  0  0  0  0  0
   -7.8244    3.5153  -24.0283 N   0  0  0  0  0  0  0  0  0  0  0  0
   -7.1939    2.9290  -22.8602 C   0  0  0  0  0  0  0  0  0  0  0  0
  -10.2468    0.9120  -24.1801 C   0  0  0  0  0  0  0  0  0  0  0  0
  -10.7132    2.0066  -24.4501 O   0  0  0  0  0  0  0  0  0  0  0  0
  -11.1157   -0.1642  -23.5839 C   0  0  0  0  0  0  0  0  0  0  0  0
  -12.4888    0.0723  -23.5773 C   0  0  0  0  0  0  0  0  0  0  0  0
  -13.3598   -0.8643  -23.0677 C   0  0  0  0  0  0  0  0  0  0  0  0
  -12.8253   -2.0578  -22.6009 C   0  0  0  0  0  0  0  0  0  0  0  0
  -13.6775   -2.9746  -22.1090 F   0  0  0  0  0  0  0  0  0  0  0  0
  -11.4703   -2.3290  -22.5998 C   0  0  0  0  0  0  0  0  0  0  0  0
  -10.5737   -1.3354  -23.0356 C   0  0  0  0  0  0  0  0  0  0  0  0
   -8.1268   -4.8197  -23.3510 H   0  0  0  0  0  0  0  0  0  0  0  0
   -9.3899   -3.9173  -24.2169 H   0  0  0  0  0  0  0  0  0  0  0  0
   -7.6781   -3.5084  -24.4580 H   0  0  0  0  0  0  0  0  0  0  0  0
   -9.1927   -3.2156  -21.8054 H   0  0  0  0  0  0  0  0  0  0  0  0
   -6.9735   -3.3627  -21.0931 H   0  0  0  0  0  0  0  0  0  0  0  0
   -6.3356   -2.4750  -22.5058 H   0  0  0  0  0  0  0  0  0  0  0  0
   -7.7093   -1.8112  -18.5579 H   0  0  0  0  0  0  0  0  0  0  0  0
   -4.3963    0.2371  -17.1904 H   0  0  0  0  0  0  0  0  0  0  0  0
   -3.1006    1.6986  -18.6490 H   0  0  0  0  0  0  0  0  0  0  0  0
   -2.5161    2.4625  -20.9322 H   0  0  0  0  0  0  0  0  0  0  0  0
   -3.7423    1.5798  -22.8917 H   0  0  0  0  0  0  0  0  0  0  0  0
   -5.6401    0.0750  -22.6031 H   0  0  0  0  0  0  0  0  0  0  0  0
   -7.4123   -0.8177  -24.2248 H   0  0  0  0  0  0  0  0  0  0  0  0
   -8.8383   -1.4201  -25.0920 H   0  0  0  0  0  0  0  0  0  0  0  0
   -7.1195    1.0335  -25.2987 H   0  0  0  0  0  0  0  0  0  0  0  0
   -8.5158    1.2178  -26.3955 H   0  0  0  0  0  0  0  0  0  0  0  0
   -8.9406    5.8204  -26.0228 H   0  0  0  0  0  0  0  0  0  0  0  0
   -7.9466    5.5803  -23.4479 H   0  0  0  0  0  0  0  0  0  0  0  0
   -7.5695    3.4211  -21.9610 H   0  0  0  0  0  0  0  0  0  0  0  0
   -7.4555    1.8737  -22.8016 H   0  0  0  0  0  0  0  0  0  0  0  0
   -6.1006    3.0257  -22.8907 H   0  0  0  0  0  0  0  0  0  0  0  0
  -12.8463    1.0197  -23.9606 H   0  0  0  0  0  0  0  0  0  0  0  0
  -14.4305   -0.7044  -23.0360 H   0  0  0  0  0  0  0  0  0  0  0  0
  -11.1767   -3.3206  -22.2682 H   0  0  0  0  0  0  0  0  0  0  0  0
  1  2  1  0
  2  3  1  0
  3  4  1  0
  4  5  1  0
  5  6  2  0
  6  7  1  0
  7  8  2  0
  8  9  1  0
  9 10  2  0
 10 11  1  0
 11 12  2  0
 12 13  1  0
 13 14  2  0
  4 15  1  0
 15 16  2  0
 15 17  1  0
 17 18  1  6
 18 19  1  0
 19 20  1  0
 20 21  1  0
 21 22  2  0
 22 23  1  0
 23 24  2  0
 24 25  1  0
 25 26  1  0
 19 27  1  0
 27 28  2  0
 27 29  1  0
 29 30  2  0
 30 31  1  0
 31 32  2  0
 32 33  1  0
 32 34  1  0
 34 35  2  0
 17  2  1  0
 25 21  1  0
 35 29  1  0
 14  5  1  0
 35 17  1  0
 14  9  1  0
  1 36  1  0
  1 37  1  0
  1 38  1  0
  2 39  1  1
  3 40  1  0
  3 41  1  0
  6 42  1  0
  8 43  1  0
 10 44  1  0
 11 45  1  0
 12 46  1  0
 13 47  1  0
 18 48  1  0
 18 49  1  0
 20 50  1  0
 20 51  1  0
 23 52  1  0
 24 53  1  0
 26 54  1  0
 26 55  1  0
 26 56  1  0
 30 57  1  0
 31 58  1  0
 34 59  1  0
M  END
