
     RDKit          3D

 59 64  0  0  0  0  0  0  0  0999 V2000
    8.9260   -2.7420   23.6946 C   0  0  0  0  0  0  0  0  0  0  0  0
    8.9679   -1.7563   22.5369 C   0  0  1  0  0  0  0  0  0  0  0  0
    7.6313   -1.5598   21.8113 C   0  0  0  0  0  0  0  0  0  0  0  0
    7.8674   -0.3235   21.0887 N   0  0  0  0  0  0  0  0  0  0  0  0
    6.9724    0.1460   20.0847 C   0  0  0  0  0  0  0  0  0  0  0  0
    7.1758   -0.2278   18.7770 C   0  0  0  0  0  0  0  0  0  0  0  0
    6.3587    0.0985   17.7457 N   0  0  0  0  0  0  0  0  0  0  0  0
    5.3184    0.8456   18.0174 C   0  0  0  0  0  0  0  0  0  0  0  0
    5.0028    1.3303   19.3172 C   0  0  0  0  0  0  0  0  0  0  0  0
    3.9142    2.2176   19.5263 C   0  0  0  0  0  0  0  0  0  0  0  0
    3.6090    2.6453   20.7839 C   0  0  0  0  0  0  0  0  0  0  0  0
    4.3557    2.1930   21.8919 C   0  0  0  0  0  0  0  0  0  0  0  0
    5.4430    1.3701   21.7115 C   0  0  0  0  0  0  0  0  0  0  0  0
    5.8222    0.9424   20.4058 C   0  0  0  0  0  0  0  0  0  0  0  0
    8.8478    0.4577   21.6687 C   0  0  0  0  0  0  0  0  0  0  0  0
    9.1232    1.5882   21.3281 O   0  0  0  0  0  0  0  0  0  0  0  0
    9.4811   -0.3275   22.8506 C   0  0  1  0  0  0  0  0  0  0  0  0
    8.9370    0.2888   24.1705 C   0  0  0  0  0  0  0  0  0  0  0  0
    9.3287    1.6885   24.3050 N   0  0  0  0  0  0  0  0  0  0  0  0
    8.5573    2.4846   25.2690 C   0  0  0  0  0  0  0  0  0  0  0  0
    8.5401    3.9752   25.0503 C   0  0  0  0  0  0  0  0  0  0  0  0
    8.9570    4.8336   25.9496 N   0  0  0  0  0  0  0  0  0  0  0  0
    8.8632    6.0627   25.3449 C   0  0  0  0  0  0  0  0  0  0  0  0
    8.3562    5.9311   24.0803 C   0  0  0  0  0  0  0  0  0  0  0  0
    8.1313    4.5847   23.9055 N   0  0  0  0  0  0  0  0  0  0  0  0
    7.4922    3.9623   22.7610 C   0  0  0  0  0  0  0  0  0  0  0  0
   10.6285    2.0523   24.0441 C   0  0  0  0  0  0  0  0  0  0  0  0
   11.0697    3.1636   24.2865 O   0  0  0  0  0  0  0  0  0  0  0  0
   11.5140    0.9910   23.4456 C   0  0  0  0  0  0  0  0  0  0  0  0
   12.8795    1.2653   23.4048 C   0  0  0  0  0  0  0  0  0  0  0  0
   13.7651    0.3450   22.8907 C   0  0  0  0  0  0  0  0  0  0  0  0
   13.2542   -0.8702   22.4546 C   0  0  0  0  0  0  0  0  0  0  0  0
   14.1209   -1.7709   21.9583 F   0  0  0  0  0  0  0  0  0  0  0  0
   11.9077   -1.1788   22.4879 C   0  0  0  0  0  0  0  0  0  0  0  0
   10.9933   -0.2035   22.9279 C   0  0  0  0  0  0  0  0  0  0  0  0
    8.6525   -3.7486   23.3520 H   0  0  0  0  0  0  0  0  0  0  0  0
    9.9083   -2.7977   24.1754 H   0  0  0  0  0  0  0  0  0  0  0  0
    8.1914   -2.4325   24.4480 H   0  0  0  0  0  0  0  0  0  0  0  0
    9.6391   -2.1409   21.7582 H   0  0  0  0  0  0  0  0  0  0  0  0
    7.4099   -2.3610   21.0978 H   0  0  0  0  0  0  0  0  0  0  0  0
    6.7783   -1.4685   22.5102 H   0  0  0  0  0  0  0  0  0  0  0  0
    8.0465   -0.8311   18.5229 H   0  0  0  0  0  0  0  0  0  0  0  0
    4.6484    1.1022   17.1975 H   0  0  0  0  0  0  0  0  0  0  0  0
    3.3443    2.5508   18.6615 H   0  0  0  0  0  0  0  0  0  0  0  0
    2.7884    3.3352   20.9449 H   0  0  0  0  0  0  0  0  0  0  0  0
    4.0813    2.5187   22.8902 H   0  0  0  0  0  0  0  0  0  0  0  0
    6.0138    1.0625   22.5831 H   0  0  0  0  0  0  0  0  0  0  0  0
    7.8452    0.2457   24.1788 H   0  0  0  0  0  0  0  0  0  0  0  0
    9.3061   -0.3028   25.0234 H   0  0  0  0  0  0  0  0  0  0  0  0
    7.5241    2.1053   25.2299 H   0  0  0  0  0  0  0  0  0  0  0  0
    8.9382    2.3460   26.2924 H   0  0  0  0  0  0  0  0  0  0  0  0
    9.2255    6.9519   25.8384 H   0  0  0  0  0  0  0  0  0  0  0  0
    8.1828    6.6426   23.2903 H   0  0  0  0  0  0  0  0  0  0  0  0
    7.8342    4.4499   21.8461 H   0  0  0  0  0  0  0  0  0  0  0  0
    7.7819    2.9138   22.7131 H   0  0  0  0  0  0  0  0  0  0  0  0
    6.3975    4.0291   22.8142 H   0  0  0  0  0  0  0  0  0  0  0  0
   13.2185    2.2284   23.7653 H   0  0  0  0  0  0  0  0  0  0  0  0
   14.8299    0.5340   22.8328 H   0  0  0  0  0  0  0  0  0  0  0  0
   11.6348   -2.1834   22.1784 H   0  0  0  0  0  0  0  0  0  0  0  0
  1  2  1  0
  2  3  1  0
  3  4  1  0
  4  5  1  0
  5  6  2  0
  6  7  1  0
  7  8  2  0
  8  9  1  0
  9 10  2  0
 10 11  1  0
 11 12  2  0
 12 13  1  0
 13 14  2  0
  4 15  1  0
 15 16  2  0
 15 17  1  0
 17 18  1  1
 18 19  1  0
 19 20  1  0
 20 21  1  0
 21 22  2  0
 22 23  1  0
 23 24  2  0
 24 25  1  0
 25 26  1  0
 19 27  1  0
 27 28  2  0
 27 29  1  0
 29 30  2  0
 30 31  1  0
 31 32  2  0
 32 33  1  0
 32 34  1  0
 34 35  2  0
 17  2  1  0
 25 21  1  0
 35 29  1  0
 14  5  1  0
 35 17  1  0
 14  9  1  0
  1 36  1  0
  1 37  1  0
  1 38  1  0
  2 39  1  6
  3 40  1  0
  3 41  1  0
  6 42  1  0
  8 43  1  0
 10 44  1  0
 11 45  1  0
 12 46  1  0
 13 47  1  0
 18 48  1  0
 18 49  1  0
 20 50  1  0
 20 51  1  0
 23 52  1  0
 24 53  1  0
 26 54  1  0
 26 55  1  0
 26 56  1  0
 30 57  1  0
 31 58  1  0
 34 59  1  0
M  END
$$$$
