
     RDKit          3D

 40 43  0  0  0  0  0  0  0  0999 V2000
   -4.4109    0.2181  -22.5064 C   0  0  0  0  0  0  0  0  0  0  0  0
   -4.0795    0.3755  -21.1159 N   0  0  0  0  0  0  0  0  0  0  0  0
   -2.9916    1.0804  -20.7656 N   0  0  0  0  0  0  0  0  0  0  0  0
   -2.9317    1.0461  -19.4541 C   0  0  0  0  0  0  0  0  0  0  0  0
   -4.0033    0.2801  -18.9092 C   0  0  0  0  0  0  0  0  0  0  0  0
   -4.4554   -0.1135  -17.6305 C   0  0  0  0  0  0  0  0  0  0  0  0
   -5.5713   -0.8083  -17.4976 N   0  0  0  0  0  0  0  0  0  0  0  0
   -6.2662   -1.1744  -18.5974 C   0  0  0  0  0  0  0  0  0  0  0  0
   -5.9157   -0.9027  -19.9133 C   0  0  0  0  0  0  0  0  0  0  0  0
   -6.5684   -1.5600  -21.0029 N   0  0  0  0  0  0  0  0  0  0  0  0
   -7.7124   -1.1703  -21.6770 C   0  0  0  0  0  0  0  0  0  0  0  0
   -8.3292   -0.1542  -21.4290 O   0  0  0  0  0  0  0  0  0  0  0  0
   -8.0443   -2.0665  -22.8907 C   0  0  2  0  0  0  0  0  0  0  0  0
   -7.0892   -1.5713  -24.0194 C   0  0  0  0  0  0  0  0  0  0  0  0
   -7.6895   -1.5186  -25.3429 N   0  0  0  0  0  0  0  0  0  0  0  0
   -8.9494   -0.4456  -25.4573 S   0  0  0  0  0  0  0  0  0  0  0  0
   -8.4320    0.8745  -25.1405 O   0  0  0  0  0  0  0  0  0  0  0  0
   -9.6098   -0.7344  -26.7157 O   0  0  0  0  0  0  0  0  0  0  0  0
  -10.0001   -1.0379  -24.1505 C   0  0  0  0  0  0  0  0  0  0  0  0
  -11.3434   -0.6769  -24.1756 C   0  0  0  0  0  0  0  0  0  0  0  0
  -12.2602   -1.4272  -23.4513 C   0  0  0  0  0  0  0  0  0  0  0  0
  -11.8074   -2.5391  -22.7472 C   0  0  0  0  0  0  0  0  0  0  0  0
  -12.9431   -3.6029  -21.9740 Cl  0  0  0  0  0  0  0  0  0  0  0  0
  -10.4512   -2.8150  -22.6213 C   0  0  0  0  0  0  0  0  0  0  0  0
   -9.5167   -1.9881  -23.2475 C   0  0  0  0  0  0  0  0  0  0  0  0
   -4.7403   -0.1245  -20.0391 C   0  0  0  0  0  0  0  0  0  0  0  0
   -3.6523    0.7393  -23.0867 H   0  0  0  0  0  0  0  0  0  0  0  0
   -4.4285   -0.8448  -22.7644 H   0  0  0  0  0  0  0  0  0  0  0  0
   -5.3922    0.6560  -22.6966 H   0  0  0  0  0  0  0  0  0  0  0  0
   -2.1240    1.5522  -18.9552 H   0  0  0  0  0  0  0  0  0  0  0  0
   -3.9034    0.1414  -16.7274 H   0  0  0  0  0  0  0  0  0  0  0  0
   -7.1714   -1.7507  -18.4084 H   0  0  0  0  0  0  0  0  0  0  0  0
   -6.2517   -2.5017  -21.1854 H   0  0  0  0  0  0  0  0  0  0  0  0
   -7.8146   -3.1095  -22.6386 H   0  0  0  0  0  0  0  0  0  0  0  0
   -6.1995   -2.2070  -24.0847 H   0  0  0  0  0  0  0  0  0  0  0  0
   -6.7712   -0.5526  -23.7830 H   0  0  0  0  0  0  0  0  0  0  0  0
   -7.9586   -2.4254  -25.7060 H   0  0  0  0  0  0  0  0  0  0  0  0
  -11.6863    0.1445  -24.7977 H   0  0  0  0  0  0  0  0  0  0  0  0
  -13.3145   -1.1792  -23.4501 H   0  0  0  0  0  0  0  0  0  0  0  0
  -10.1185   -3.6374  -21.9920 H   0  0  0  0  0  0  0  0  0  0  0  0
  1  2  1  0
  2  3  1  0
  3  4  2  0
  4  5  1  0
  5  6  2  0
  6  7  1  0
  7  8  2  0
  8  9  1  0
  9 10  1  0
 10 11  1  0
 11 12  2  0
 11 13  1  0
 13 14  1  0
 14 15  1  0
 15 16  1  0
 16 17  2  0
 16 18  2  0
 16 19  1  0
 19 20  2  0
 20 21  1  0
 21 22  2  0
 22 23  1  0
 22 24  1  0
 24 25  2  0
  9 26  2  0
 26  2  1  0
 26  5  1  0
 25 13  1  0
 25 19  1  0
  1 27  1  0
  1 28  1  0
  1 29  1  0
  4 30  1  0
  6 31  1  0
  8 32  1  0
 10 33  1  0
 13 34  1  1
 14 35  1  0
 14 36  1  0
 15 37  1  0
 20 38  1  0
 21 39  1  0
 24 40  1  0
M  END
