LIG(A-305)
     RDKit          3D

 24 27  0  0  1  0  0  0  0  0999 V2000
   13.9410   -1.8084   20.9230 Cl  0  0  0  0  0  0  0  0  0  0  0  0
   12.9640   -0.9004   22.0390 C   0  0  0  0  0  0  0  0  0  0  0  0
   13.5791   -0.0534   22.9339 C   0  0  0  0  0  0  0  0  0  0  0  0
   12.8031    0.6507   23.8359 C   0  0  0  0  0  0  0  0  0  0  0  0
   11.5940   -1.0554   22.0041 C   0  0  0  0  0  0  0  0  0  0  0  0
   10.7951   -0.3384   22.8911 C   0  0  0  0  0  0  0  0  0  0  0  0
   11.4241    0.5087   23.8060 C   0  0  0  0  0  0  0  0  0  0  0  0
   10.7192    1.2577   24.7140 O   0  0  0  0  0  0  0  0  0  0  0  0
    9.5322    0.6077   25.1801 C   0  0  0  0  0  0  0  0  0  0  0  0
    8.5731    0.2937   24.0562 C   0  0  0  0  0  0  0  0  0  0  0  0
    9.2821   -0.4404   22.8732 C   0  0  1  0  0  0  0  0  0  0  0  0
    8.8000    0.1786   21.5602 C   0  0  0  0  0  0  0  0  0  0  0  0
    9.3520    1.1516   21.0571 O   0  0  0  0  0  0  0  0  0  0  0  0
    7.6900   -0.3914   21.0363 N   0  0  0  0  0  0  0  0  0  0  0  0
    6.9409    0.1405   19.9513 C   0  0  0  0  0  0  0  0  0  0  0  0
    7.3768   -0.0285   18.6393 C   0  0  0  0  0  0  0  0  0  0  0  0
    6.7358    0.4604   17.5753 N   0  0  0  0  0  0  0  0  0  0  0  0
    5.5978    1.1274   17.7863 C   0  0  0  0  0  0  0  0  0  0  0  0
    5.7549    0.8595   20.1703 C   0  0  0  0  0  0  0  0  0  0  0  0
    5.0120    1.2786   21.2664 N   0  0  0  0  0  0  0  0  0  0  0  0
    5.3081    1.0886   22.6814 C   0  0  0  0  0  0  0  0  0  0  0  0
    5.0568    1.3375   19.0514 C   0  0  0  0  0  0  0  0  0  0  0  0
    3.8959    1.9895   19.4554 N   0  0  0  0  0  0  0  0  0  0  0  0
    3.9299    1.9265   20.7614 C   0  0  0  0  0  0  0  0  0  0  0  0
  1  2  1  0
  2  3  2  0
  2  5  1  0
  3  4  1  0
  4  7  2  0
  5  6  2  0
  6  7  1  0
  6 11  1  0
  7  8  1  0
  8  9  1  0
  9 10  1  0
 10 11  1  0
 11 12  1  6
 12 13  2  0
 12 14  1  0
 14 15  1  0
 15 16  2  0
 15 19  1  0
 16 17  1  0
 17 18  2  0
 18 22  1  0
 19 20  1  0
 19 22  2  0
 20 21  1  0
 20 24  1  0
 22 23  1  0
 23 24  2  0
M  END
$$$$
