mobile
  PyMOL3.1          3D                             0

 61 66  0  0  0  0  0  0  0  0999 V2000
   -8.7704    6.1272  -22.7182 N   0  0  0  0  0  0  0  0  0  0  0  0
   -8.0594    5.2413  -22.7967 C   0  0  0  0  0  0  0  0  0  0  0  0
   -7.1554    4.0833  -22.8338 C   0  0  0  0  0  0  0  0  0  0  0  0
   -5.8017    4.2805  -23.4844 C   0  0  0  0  0  0  0  0  0  0  0  0
   -5.8952    4.2220  -22.0046 C   0  0  0  0  0  0  0  0  0  0  0  0
   -7.8793    2.7447  -22.9564 C   0  0  0  0  0  0  0  0  0  0  0  0
   -8.1136    1.9842  -24.5533 S   0  0  0  0  0  0  0  0  0  0  0  0
   -6.8592    1.4535  -24.9832 O   0  0  0  0  0  0  0  0  0  0  0  0
   -8.8028    2.9102  -25.3960 O   0  0  0  0  0  0  0  0  0  0  0  0
   -9.1116    0.7185  -24.3080 N   0  0  0  0  0  0  0  0  0  0  0  0
   -8.6096   -0.6574  -24.1757 C   0  0  0  0  0  0  0  0  0  0  0  0
  -10.5381    0.7821  -24.6561 C   0  0  0  0  0  0  0  0  0  0  0  0
  -11.3617   -0.1055  -23.7430 C   0  0  0  0  0  0  0  0  0  0  0  0
  -10.7784   -1.1233  -22.9640 C   0  0  0  0  0  0  0  0  0  0  0  0
  -11.5902   -1.9368  -22.1754 C   0  0  0  0  0  0  0  0  0  0  0  0
  -12.9481   -1.7011  -22.1263 C   0  0  0  0  0  0  0  0  0  0  0  0
  -13.9307   -2.6606  -21.0503 Cl  0  0  0  0  0  0  0  0  0  0  0  0
  -13.5376   -0.7062  -22.8723 C   0  0  0  0  0  0  0  0  0  0  0  0
  -12.7425    0.0826  -23.6840 C   0  0  0  0  0  0  0  0  0  0  0  0
   -9.2724   -1.2908  -22.9282 C   0  0  0  0  0  0  0  0  0  0  0  0
   -8.7564   -2.7223  -22.6019 C   0  0  0  0  0  0  0  0  0  0  0  0
   -8.7004   -3.6933  -23.7767 C   0  0  0  0  0  0  0  0  0  0  0  0
   -8.7209   -0.5321  -21.7078 C   0  0  0  0  0  0  0  0  0  0  0  0
   -9.1760    0.4862  -21.2303 O   0  0  0  0  0  0  0  0  0  0  0  0
   -7.6136   -1.1941  -21.2627 N   0  0  0  0  0  0  0  0  0  0  0  0
   -7.3890   -2.4546  -21.9794 C   0  0  0  0  0  0  0  0  0  0  0  0
   -6.7548   -0.7633  -20.1948 C   0  0  0  0  0  0  0  0  0  0  0  0
   -5.5936    0.0409  -20.4297 C   0  0  0  0  0  0  0  0  0  0  0  0
   -5.1432    0.4368  -21.7171 C   0  0  0  0  0  0  0  0  0  0  0  0
   -4.0376    1.2253  -21.8672 C   0  0  0  0  0  0  0  0  0  0  0  0
   -3.3304    1.6712  -20.7571 C   0  0  0  0  0  0  0  0  0  0  0  0
   -3.7215    1.3208  -19.4957 C   0  0  0  0  0  0  0  0  0  0  0  0
   -4.8581    0.4949  -19.2960 C   0  0  0  0  0  0  0  0  0  0  0  0
   -5.3168    0.1058  -18.0079 C   0  0  0  0  0  0  0  0  0  0  0  0
   -6.3930   -0.6432  -17.7955 N   0  0  0  0  0  0  0  0  0  0  0  0
   -7.0789   -1.0562  -18.8724 C   0  0  0  0  0  0  0  0  0  0  0  0
   -5.3334    3.4529  -24.0364 H   0  0  0  0  0  0  0  0  0  0  0  0
   -5.5663    5.2336  -23.9811 H   0  0  0  0  0  0  0  0  0  0  0  0
   -5.4956    3.3516  -21.4645 H   0  0  0  0  0  0  0  0  0  0  0  0
   -5.7286    5.1323  -21.4091 H   0  0  0  0  0  0  0  0  0  0  0  0
   -7.3167    2.0248  -22.3448 H   0  0  0  0  0  0  0  0  0  0  0  0
   -8.8824    2.8874  -22.5258 H   0  0  0  0  0  0  0  0  0  0  0  0
   -8.8717   -1.2384  -25.0728 H   0  0  0  0  0  0  0  0  0  0  0  0
   -7.5171   -0.6458  -24.0526 H   0  0  0  0  0  0  0  0  0  0  0  0
  -10.8867    1.8206  -24.5574 H   0  0  0  0  0  0  0  0  0  0  0  0
  -10.6699    0.4485  -25.6954 H   0  0  0  0  0  0  0  0  0  0  0  0
  -11.1580   -2.7470  -21.6071 H   0  0  0  0  0  0  0  0  0  0  0  0
  -14.6042   -0.5422  -22.8234 H   0  0  0  0  0  0  0  0  0  0  0  0
  -13.1990    0.8557  -24.2836 H   0  0  0  0  0  0  0  0  0  0  0  0
   -9.4108   -3.1514  -21.8293 H   0  0  0  0  0  0  0  0  0  0  0  0
   -8.3232   -4.6674  -23.4311 H   0  0  0  0  0  0  0  0  0  0  0  0
   -9.7095   -3.8196  -24.1968 H   0  0  0  0  0  0  0  0  0  0  0  0
   -8.0281   -3.2938  -24.5506 H   0  0  0  0  0  0  0  0  0  0  0  0
   -7.1009   -3.2596  -21.2875 H   0  0  0  0  0  0  0  0  0  0  0  0
   -6.6144   -2.3403  -22.7512 H   0  0  0  0  0  0  0  0  0  0  0  0
   -5.6833    0.1081  -22.5922 H   0  0  0  0  0  0  0  0  0  0  0  0
   -3.7099    1.5046  -22.8583 H   0  0  0  0  0  0  0  0  0  0  0  0
   -2.4627    2.3009  -20.8923 H   0  0  0  0  0  0  0  0  0  0  0  0
   -3.1616    1.6757  -18.6434 H   0  0  0  0  0  0  0  0  0  0  0  0
   -4.7544    0.4389  -17.1493 H   0  0  0  0  0  0  0  0  0  0  0  0
   -7.9530   -1.6657  -18.6995 H   0  0  0  0  0  0  0  0  0  0  0  0
  1  2  3  0  0  0  0
  2  3  1  0  0  0  0
  3  4  1  0  0  0  0
  3  5  1  0  0  0  0
  3  6  1  0  0  0  0
  4  5  1  0  0  0  0
  4 37  1  0  0  0  0
  4 38  1  0  0  0  0
  5 39  1  0  0  0  0
  5 40  1  0  0  0  0
  6  7  1  0  0  0  0
  6 41  1  0  0  0  0
  6 42  1  0  0  0  0
  7  8  2  0  0  0  0
  7  9  2  0  0  0  0
  7 10  1  0  0  0  0
 10 11  1  0  0  0  0
 10 12  1  0  0  0  0
 11 20  1  0  0  0  0
 11 43  1  0  0  0  0
 11 44  1  0  0  0  0
 12 13  1  0  0  0  0
 12 45  1  0  0  0  0
 12 46  1  0  0  0  0
 13 14  4  0  0  0  0
 13 19  4  0  0  0  0
 14 15  4  0  0  0  0
 14 20  1  0  0  0  0
 15 16  4  0  0  0  0
 15 47  1  0  0  0  0
 16 17  1  0  0  0  0
 16 18  4  0  0  0  0
 18 19  4  0  0  0  0
 18 48  1  0  0  0  0
 19 49  1  0  0  0  0
 20 21  1  0  0  0  0
 20 23  1  0  0  0  0
 21 22  1  0  0  0  0
 21 26  1  0  0  0  0
 21 50  1  0  0  0  0
 22 51  1  0  0  0  0
 22 52  1  0  0  0  0
 22 53  1  0  0  0  0
 23 24  2  0  0  0  0
 23 25  1  0  0  0  0
 25 26  1  0  0  0  0
 25 27  1  0  0  0  0
 26 54  1  0  0  0  0
 26 55  1  0  0  0  0
 27 28  4  0  0  0  0
 27 36  4  0  0  0  0
 28 29  4  0  0  0  0
 28 33  4  0  0  0  0
 29 30  4  0  0  0  0
 29 56  1  0  0  0  0
 30 31  4  0  0  0  0
 30 57  1  0  0  0  0
 31 32  4  0  0  0  0
 31 58  1  0  0  0  0
 32 33  4  0  0  0  0
 32 59  1  0  0  0  0
 33 34  4  0  0  0  0
 34 35  4  0  0  0  0
 34 60  1  0  0  0  0
 35 36  4  0  0  0  0
 36 61  1  0  0  0  0
M  END
$$$$
