
     RDKit          3D

 50 54  0  0  0  0  0  0  0  0999 V2000
    9.1865   -2.6606   23.7592 C   0  0  0  0  0  0  0  0  0  0  0  0
    9.2157   -1.7311   22.5434 C   0  0  1  0  0  0  0  0  0  0  0  0
    7.8334   -1.5218   21.9036 C   0  0  0  0  0  0  0  0  0  0  0  0
    8.0058   -0.2733   21.1812 N   0  0  0  0  0  0  0  0  0  0  0  0
    7.1322    0.1312   20.1399 C   0  0  0  0  0  0  0  0  0  0  0  0
    7.3783   -0.2565   18.8036 C   0  0  0  0  0  0  0  0  0  0  0  0
    6.5711    0.0432   17.7670 N   0  0  0  0  0  0  0  0  0  0  0  0
    5.4671    0.7662   18.0185 C   0  0  0  0  0  0  0  0  0  0  0  0
    5.1374    1.2234   19.3004 C   0  0  0  0  0  0  0  0  0  0  0  0
    4.0044    2.0255   19.5023 C   0  0  0  0  0  0  0  0  0  0  0  0
    3.6675    2.4519   20.7886 C   0  0  0  0  0  0  0  0  0  0  0  0
    4.4507    2.0693   21.8819 C   0  0  0  0  0  0  0  0  0  0  0  0
    5.6004    1.2948   21.6802 C   0  0  0  0  0  0  0  0  0  0  0  0
    5.9666    0.8806   20.3895 C   0  0  0  0  0  0  0  0  0  0  0  0
    9.0462    0.4580   21.7363 C   0  0  0  0  0  0  0  0  0  0  0  0
    9.3792    1.5788   21.3834 O   0  0  0  0  0  0  0  0  0  0  0  0
    9.7144   -0.3018   22.8774 C   0  0  1  0  0  0  0  0  0  0  0  0
    9.1078    0.4384   24.0905 C   0  0  0  0  0  0  0  0  0  0  0  0
    9.5130    1.8429   24.0310 N   0  0  0  0  0  0  0  0  0  0  0  0
    8.5356    2.9195   24.2707 C   0  0  0  0  0  0  0  0  0  0  0  0
    8.1173    3.5857   23.0263 C   0  0  0  0  0  0  0  0  0  0  0  0
    7.7282    4.1322   22.0771 N   0  0  0  0  0  0  0  0  0  0  0  0
   10.8707    2.1091   23.8510 C   0  0  0  0  0  0  0  0  0  0  0  0
   11.2957    3.2168   24.1525 O   0  0  0  0  0  0  0  0  0  0  0  0
   11.7899    1.0545   23.3715 C   0  0  0  0  0  0  0  0  0  0  0  0
   13.1906    1.2218   23.3706 C   0  0  0  0  0  0  0  0  0  0  0  0
   14.0224    0.1953   22.9073 C   0  0  0  0  0  0  0  0  0  0  0  0
   13.4740   -1.0007   22.4467 C   0  0  0  0  0  0  0  0  0  0  0  0
   14.2804   -1.9624   21.9375 F   0  0  0  0  0  0  0  0  0  0  0  0
   12.0879   -1.1827   22.5022 C   0  0  0  0  0  0  0  0  0  0  0  0
   11.2322   -0.1556   22.9256 C   0  0  0  0  0  0  0  0  0  0  0  0
    8.4958   -2.2868   24.5250 H   0  0  0  0  0  0  0  0  0  0  0  0
    8.8708   -3.6660   23.4532 H   0  0  0  0  0  0  0  0  0  0  0  0
   10.1906   -2.7326   24.1929 H   0  0  0  0  0  0  0  0  0  0  0  0
    9.8703   -2.1789   21.7809 H   0  0  0  0  0  0  0  0  0  0  0  0
    7.0538   -1.4192   22.6685 H   0  0  0  0  0  0  0  0  0  0  0  0
    7.5697   -2.3502   21.2353 H   0  0  0  0  0  0  0  0  0  0  0  0
    8.2752   -0.8333   18.6027 H   0  0  0  0  0  0  0  0  0  0  0  0
    4.8122    1.0200   17.1911 H   0  0  0  0  0  0  0  0  0  0  0  0
    3.3937    2.3348   18.6583 H   0  0  0  0  0  0  0  0  0  0  0  0
    2.7963    3.0827   20.9353 H   0  0  0  0  0  0  0  0  0  0  0  0
    4.1690    2.3799   22.8843 H   0  0  0  0  0  0  0  0  0  0  0  0
    6.2166    1.0156   22.5287 H   0  0  0  0  0  0  0  0  0  0  0  0
    8.0102    0.3549   24.0814 H   0  0  0  0  0  0  0  0  0  0  0  0
    9.4867   -0.0066   25.0221 H   0  0  0  0  0  0  0  0  0  0  0  0
    8.9333    3.6859   24.9446 H   0  0  0  0  0  0  0  0  0  0  0  0
    7.6449    2.5022   24.7487 H   0  0  0  0  0  0  0  0  0  0  0  0
   13.6295    2.1524   23.7294 H   0  0  0  0  0  0  0  0  0  0  0  0
   15.1024    0.3047   22.9052 H   0  0  0  0  0  0  0  0  0  0  0  0
   11.6808   -2.1270   22.1587 H   0  0  0  0  0  0  0  0  0  0  0  0
  1  2  1  0
  2  3  1  0
  3  4  1  0
  4  5  1  0
  5  6  2  0
  6  7  1  0
  7  8  2  0
  8  9  1  0
  9 10  2  0
 10 11  1  0
 11 12  2  0
 12 13  1  0
 13 14  2  0
  4 15  1  0
 15 16  2  0
 15 17  1  0
 17 18  1  1
 18 19  1  0
 19 20  1  0
 20 21  1  0
 21 22  3  0
 19 23  1  0
 23 24  2  0
 23 25  1  0
 25 26  2  0
 26 27  1  0
 27 28  2  0
 28 29  1  0
 28 30  1  0
 30 31  2  0
 17  2  1  0
 31 25  1  0
 14  5  1  0
 31 17  1  0
 14  9  1  0
  1 32  1  0
  1 33  1  0
  1 34  1  0
  2 35  1  6
  3 36  1  0
  3 37  1  0
  6 38  1  0
  8 39  1  0
 10 40  1  0
 11 41  1  0
 12 42  1  0
 13 43  1  0
 18 44  1  0
 18 45  1  0
 20 46  1  0
 20 47  1  0
 26 48  1  0
 27 49  1  0
 30 50  1  0
M  END
$$$$
