
     RDKit          3D

 57 62  0  0  0  0  0  0  0  0999 V2000
   -7.0015    3.6322  -22.4884 C   0  0  0  0  0  0  0  0  0  0  0  0
   -7.7818    2.6962  -23.2752 N   0  0  0  0  0  0  0  0  0  0  0  0
   -7.5069    2.5372  -24.5835 C   0  0  0  0  0  0  0  0  0  0  0  0
   -6.7418    3.2598  -25.2081 O   0  0  0  0  0  0  0  0  0  0  0  0
   -8.1639    1.3690  -25.3261 C   0  0  0  0  0  0  0  0  0  0  0  0
   -9.0010    0.4844  -24.5540 N   0  0  0  0  0  0  0  0  0  0  0  0
   -8.5213   -0.8570  -24.2937 C   0  0  0  0  0  0  0  0  0  0  0  0
   -9.0718   -1.4599  -22.9689 C   0  0  2  0  0  0  0  0  0  0  0  0
   -8.4945   -0.6241  -21.7976 C   0  0  0  0  0  0  0  0  0  0  0  0
   -8.8231    0.5131  -21.5151 O   0  0  0  0  0  0  0  0  0  0  0  0
   -7.5075   -1.3401  -21.1592 N   0  0  0  0  0  0  0  0  0  0  0  0
   -6.6671   -0.8122  -20.1277 C   0  0  0  0  0  0  0  0  0  0  0  0
   -6.9026   -1.1453  -18.8158 C   0  0  0  0  0  0  0  0  0  0  0  0
   -6.1481   -0.7327  -17.7639 N   0  0  0  0  0  0  0  0  0  0  0  0
   -5.1231    0.0429  -18.0114 C   0  0  0  0  0  0  0  0  0  0  0  0
   -4.7696    0.4868  -19.3182 C   0  0  0  0  0  0  0  0  0  0  0  0
   -3.6776    1.3687  -19.5345 C   0  0  0  0  0  0  0  0  0  0  0  0
   -3.3349    1.7569  -20.7964 C   0  0  0  0  0  0  0  0  0  0  0  0
   -4.0709    1.2791  -21.9015 C   0  0  0  0  0  0  0  0  0  0  0  0
   -5.1506    0.4492  -21.7220 C   0  0  0  0  0  0  0  0  0  0  0  0
   -5.5429    0.0349  -20.4181 C   0  0  0  0  0  0  0  0  0  0  0  0
   -7.2367   -2.6139  -21.7833 C   0  0  0  0  0  0  0  0  0  0  0  0
   -8.4341   -2.8420  -22.7101 C   0  0  0  0  0  0  0  0  0  0  0  0
   -9.0961   -4.1829  -22.6400 C   0  0  0  0  0  0  0  0  0  0  0  0
   -8.2514   -3.8444  -23.8283 C   0  0  0  0  0  0  0  0  0  0  0  0
  -10.5858   -1.3140  -23.0607 C   0  0  0  0  0  0  0  0  0  0  0  0
  -11.4801   -2.2058  -22.4775 C   0  0  0  0  0  0  0  0  0  0  0  0
  -12.8350   -1.9396  -22.4457 C   0  0  0  0  0  0  0  0  0  0  0  0
  -13.8522   -3.0670  -21.5896 Cl  0  0  0  0  0  0  0  0  0  0  0  0
  -13.3785   -0.7849  -23.0049 C   0  0  0  0  0  0  0  0  0  0  0  0
  -12.5112    0.1111  -23.5944 C   0  0  0  0  0  0  0  0  0  0  0  0
  -11.1436   -0.1553  -23.6365 C   0  0  0  0  0  0  0  0  0  0  0  0
  -10.2787    0.8795  -24.2766 C   0  0  0  0  0  0  0  0  0  0  0  0
  -10.6809    2.0150  -24.5047 O   0  0  0  0  0  0  0  0  0  0  0  0
   -7.3005    4.6730  -22.6600 H   0  0  0  0  0  0  0  0  0  0  0  0
   -5.9347    3.5442  -22.7334 H   0  0  0  0  0  0  0  0  0  0  0  0
   -7.1414    3.3901  -21.4308 H   0  0  0  0  0  0  0  0  0  0  0  0
   -8.3905    2.0518  -22.7736 H   0  0  0  0  0  0  0  0  0  0  0  0
   -8.7279    1.7896  -26.1592 H   0  0  0  0  0  0  0  0  0  0  0  0
   -7.3458    0.7862  -25.7641 H   0  0  0  0  0  0  0  0  0  0  0  0
   -7.4314   -0.8380  -24.2202 H   0  0  0  0  0  0  0  0  0  0  0  0
   -8.8007   -1.5280  -25.1127 H   0  0  0  0  0  0  0  0  0  0  0  0
   -7.7672   -1.7571  -18.5576 H   0  0  0  0  0  0  0  0  0  0  0  0
   -4.5274    0.3901  -17.1643 H   0  0  0  0  0  0  0  0  0  0  0  0
   -3.1276    1.7334  -18.6741 H   0  0  0  0  0  0  0  0  0  0  0  0
   -2.5075    2.4411  -20.9589 H   0  0  0  0  0  0  0  0  0  0  0  0
   -3.7943    1.5975  -22.8997 H   0  0  0  0  0  0  0  0  0  0  0  0
   -5.7094    0.1100  -22.5898 H   0  0  0  0  0  0  0  0  0  0  0  0
   -6.3006   -2.5702  -22.3617 H   0  0  0  0  0  0  0  0  0  0  0  0
   -7.1252   -3.4044  -21.0379 H   0  0  0  0  0  0  0  0  0  0  0  0
  -10.1557   -4.2758  -22.8254 H   0  0  0  0  0  0  0  0  0  0  0  0
   -8.7040   -4.8933  -21.9121 H   0  0  0  0  0  0  0  0  0  0  0  0
   -8.7671   -3.6469  -24.7664 H   0  0  0  0  0  0  0  0  0  0  0  0
   -7.2744   -4.3039  -23.9650 H   0  0  0  0  0  0  0  0  0  0  0  0
  -11.1312   -3.0530  -21.9095 H   0  0  0  0  0  0  0  0  0  0  0  0
  -14.4442   -0.5958  -22.9313 H   0  0  0  0  0  0  0  0  0  0  0  0
  -12.8830    1.0386  -24.0206 H   0  0  0  0  0  0  0  0  0  0  0  0
  1  2  1  0
  2  3  1  0
  3  4  2  0
  3  5  1  0
  5  6  1  0
  6  7  1  0
  8  7  1  6
  8  9  1  0
  9 10  2  0
  9 11  1  0
 11 12  1  0
 12 13  2  0
 13 14  1  0
 14 15  2  0
 15 16  1  0
 16 17  2  0
 17 18  1  0
 18 19  2  0
 19 20  1  0
 20 21  2  0
 11 22  1  0
 22 23  1  0
 23 24  1  0
 24 25  1  0
  8 26  1  0
 26 27  2  0
 27 28  1  0
 28 29  1  0
 28 30  2  0
 30 31  1  0
 31 32  2  0
 32 33  1  0
 33 34  2  0
 33  6  1  0
 23  8  1  0
 32 26  1  0
 21 12  1  0
 25 23  1  0
 21 16  1  0
  1 35  1  0
  1 36  1  0
  1 37  1  0
  2 38  1  0
  5 39  1  0
  5 40  1  0
  7 41  1  0
  7 42  1  0
 13 43  1  0
 15 44  1  0
 17 45  1  0
 18 46  1  0
 19 47  1  0
 20 48  1  0
 22 49  1  0
 22 50  1  0
 24 51  1  0
 24 52  1  0
 25 53  1  0
 25 54  1  0
 27 55  1  0
 30 56  1  0
 31 57  1  0
M  END
