
     RDKit          3D

 40 44  0  0  0  0  0  0  0  0999 V2000
   -6.5528   -3.6607  -21.5260 O   0  0  0  0  0  0  0  0  0  0  0  0
   -7.4110   -2.8435  -21.7457 C   0  0  0  0  0  0  0  0  0  0  0  0
   -8.4421   -2.9176  -22.6616 N   0  0  0  0  0  0  0  0  0  0  0  0
   -8.9856   -1.5959  -22.9696 C   0  0  1  0  0  0  0  0  0  0  0  0
   -8.2871   -0.9697  -24.2000 C   0  0  0  0  0  0  0  0  0  0  0  0
   -9.0575    0.2593  -24.6466 C   0  0  0  0  0  0  0  0  0  0  0  0
  -10.3951   -0.0733  -25.0183 O   0  0  0  0  0  0  0  0  0  0  0  0
  -11.0948   -0.8162  -24.1362 C   0  0  0  0  0  0  0  0  0  0  0  0
  -12.4807   -0.8202  -24.2302 C   0  0  0  0  0  0  0  0  0  0  0  0
  -13.1860   -1.5468  -23.2859 C   0  0  0  0  0  0  0  0  0  0  0  0
  -12.6256   -2.2885  -22.3261 N   0  0  0  0  0  0  0  0  0  0  0  0
  -11.2969   -2.3043  -22.2823 C   0  0  0  0  0  0  0  0  0  0  0  0
  -10.4780   -1.5883  -23.1525 C   0  0  0  0  0  0  0  0  0  0  0  0
   -8.5683   -0.8498  -21.6862 C   0  0  0  0  0  0  0  0  0  0  0  0
   -9.0106    0.1680  -21.2309 O   0  0  0  0  0  0  0  0  0  0  0  0
   -7.5461   -1.6041  -21.1088 N   0  0  0  0  0  0  0  0  0  0  0  0
   -6.6720   -1.1135  -20.1053 C   0  0  0  0  0  0  0  0  0  0  0  0
   -6.9471   -1.3743  -18.7939 C   0  0  0  0  0  0  0  0  0  0  0  0
   -6.2238   -0.9008  -17.7486 N   0  0  0  0  0  0  0  0  0  0  0  0
   -5.2273   -0.0927  -18.0150 C   0  0  0  0  0  0  0  0  0  0  0  0
   -4.8804    0.3215  -19.3377 C   0  0  0  0  0  0  0  0  0  0  0  0
   -3.8981    1.3145  -19.5951 C   0  0  0  0  0  0  0  0  0  0  0  0
   -3.5717    1.6571  -20.8775 C   0  0  0  0  0  0  0  0  0  0  0  0
   -4.1811    0.9953  -21.9709 C   0  0  0  0  0  0  0  0  0  0  0  0
   -5.1608    0.0607  -21.7468 C   0  0  0  0  0  0  0  0  0  0  0  0
   -5.5785   -0.2491  -20.4245 C   0  0  0  0  0  0  0  0  0  0  0  0
   -8.2695   -3.5590  -23.4198 H   0  0  0  0  0  0  0  0  0  0  0  0
   -8.2562   -1.7116  -25.0065 H   0  0  0  0  0  0  0  0  0  0  0  0
   -7.2503   -0.7057  -23.9557 H   0  0  0  0  0  0  0  0  0  0  0  0
   -8.6237    0.7237  -25.5346 H   0  0  0  0  0  0  0  0  0  0  0  0
   -9.0835    0.9970  -23.8359 H   0  0  0  0  0  0  0  0  0  0  0  0
  -12.9664   -0.2368  -25.0043 H   0  0  0  0  0  0  0  0  0  0  0  0
  -14.2726   -1.5220  -23.2886 H   0  0  0  0  0  0  0  0  0  0  0  0
  -10.8288   -2.9156  -21.5128 H   0  0  0  0  0  0  0  0  0  0  0  0
   -7.8151   -1.9799  -18.5527 H   0  0  0  0  0  0  0  0  0  0  0  0
   -4.6779    0.3256  -17.1648 H   0  0  0  0  0  0  0  0  0  0  0  0
   -3.4052    1.7897  -18.7505 H   0  0  0  0  0  0  0  0  0  0  0  0
   -2.8594    2.4575  -21.0674 H   0  0  0  0  0  0  0  0  0  0  0  0
   -3.8924    1.2385  -22.9907 H   0  0  0  0  0  0  0  0  0  0  0  0
   -5.6243   -0.4465  -22.5869 H   0  0  0  0  0  0  0  0  0  0  0  0
  1  2  2  0
  2  3  1  0
  4  3  1  1
  4  5  1  0
  5  6  1  0
  6  7  1  0
  7  8  1  0
  8  9  2  0
  9 10  1  0
 10 11  2  0
 11 12  1  0
 12 13  2  0
  4 14  1  0
 14 15  2  0
 14 16  1  0
 16 17  1  0
 17 18  2  0
 18 19  1  0
 19 20  2  0
 20 21  1  0
 21 22  2  0
 22 23  1  0
 23 24  2  0
 24 25  1  0
 25 26  2  0
 16  2  1  0
 26 17  1  0
 13  4  1  0
 26 21  1  0
 13  8  1  0
  3 27  1  0
  5 28  1  0
  5 29  1  0
  6 30  1  0
  6 31  1  0
  9 32  1  0
 10 33  1  0
 12 34  1  0
 18 35  1  0
 20 36  1  0
 22 37  1  0
 23 38  1  0
 24 39  1  0
 25 40  1  0
M  END
