
     RDKit          3D

 64 68  0  0  0  0  0  0  0  0999 V2000
    7.2888    4.6330   22.3488 C   0  0  0  0  0  0  0  0  0  0  0  0
    8.0200    3.6608   23.1280 N   0  0  0  0  0  0  0  0  0  0  0  0
    7.8066    3.5992   24.4556 C   0  0  0  0  0  0  0  0  0  0  0  0
    7.0365    4.3441   25.0553 O   0  0  0  0  0  0  0  0  0  0  0  0
    8.5539    2.5205   25.2445 C   0  0  0  0  0  0  0  0  0  0  0  0
    9.3843    1.6213   24.4762 N   0  0  0  0  0  0  0  0  0  0  0  0
    8.9323    0.2614   24.2402 C   0  0  0  0  0  0  0  0  0  0  0  0
    9.4733   -0.2932   22.8923 C   0  0  2  0  0  0  0  0  0  0  0  0
    8.8324    0.5182   21.7325 C   0  0  0  0  0  0  0  0  0  0  0  0
    9.0757    1.6625   21.4072 O   0  0  0  0  0  0  0  0  0  0  0  0
    7.8823   -0.2618   21.1199 N   0  0  0  0  0  0  0  0  0  0  0  0
    7.0028    0.1954   20.1042 C   0  0  0  0  0  0  0  0  0  0  0  0
    7.1928   -0.2207   18.8103 C   0  0  0  0  0  0  0  0  0  0  0  0
    6.3782    0.0977   17.7765 N   0  0  0  0  0  0  0  0  0  0  0  0
    5.3330    0.8456   18.0288 C   0  0  0  0  0  0  0  0  0  0  0  0
    5.0238    1.3537   19.3228 C   0  0  0  0  0  0  0  0  0  0  0  0
    3.9113    2.2052   19.5431 C   0  0  0  0  0  0  0  0  0  0  0  0
    3.6041    2.6398   20.8005 C   0  0  0  0  0  0  0  0  0  0  0  0
    4.3845    2.2231   21.9010 C   0  0  0  0  0  0  0  0  0  0  0  0
    5.4824    1.4176   21.7170 C   0  0  0  0  0  0  0  0  0  0  0  0
    5.8520    0.9890   20.4099 C   0  0  0  0  0  0  0  0  0  0  0  0
    7.6368   -1.5083   21.8033 C   0  0  0  0  0  0  0  0  0  0  0  0
    8.9391   -1.7041   22.5758 C   0  0  2  0  0  0  0  0  0  0  0  0
    8.7980   -2.6328   23.7706 C   0  0  0  0  0  0  0  0  0  0  0  0
    8.2675   -4.2196   23.1786 S   0  0  0  0  0  0  0  0  0  0  0  0
    9.0726   -4.5993   22.0329 O   0  0  0  0  0  0  0  0  0  0  0  0
    6.8163   -4.1797   23.0490 O   0  0  0  0  0  0  0  0  0  0  0  0
    8.7421   -5.1651   24.4641 N   0  0  0  0  0  0  0  0  0  0  0  0
    7.8697   -5.1641   25.6329 C   0  0  0  0  0  0  0  0  0  0  0  0
   10.9877   -0.1585   22.9450 C   0  0  0  0  0  0  0  0  0  0  0  0
   11.9028   -1.1335   22.5088 C   0  0  0  0  0  0  0  0  0  0  0  0
   13.2529   -0.8338   22.4623 C   0  0  0  0  0  0  0  0  0  0  0  0
   14.1072   -1.7529   21.9690 F   0  0  0  0  0  0  0  0  0  0  0  0
   13.7624    0.3831   22.9057 C   0  0  0  0  0  0  0  0  0  0  0  0
   12.8749    1.3184   23.4035 C   0  0  0  0  0  0  0  0  0  0  0  0
   11.5087    1.0424   23.4510 C   0  0  0  0  0  0  0  0  0  0  0  0
   10.6283    2.0577   24.1141 C   0  0  0  0  0  0  0  0  0  0  0  0
   11.0032    3.2048   24.3198 O   0  0  0  0  0  0  0  0  0  0  0  0
    7.6485    5.6534   22.5313 H   0  0  0  0  0  0  0  0  0  0  0  0
    6.2265    4.5931   22.6200 H   0  0  0  0  0  0  0  0  0  0  0  0
    7.4170    4.3930   21.2884 H   0  0  0  0  0  0  0  0  0  0  0  0
    8.5912    2.9800   22.6329 H   0  0  0  0  0  0  0  0  0  0  0  0
    9.1651    3.0261   25.9981 H   0  0  0  0  0  0  0  0  0  0  0  0
    7.8026    1.9353   25.7878 H   0  0  0  0  0  0  0  0  0  0  0  0
    9.2649   -0.3824   25.0682 H   0  0  0  0  0  0  0  0  0  0  0  0
    7.8342    0.2656   24.2262 H   0  0  0  0  0  0  0  0  0  0  0  0
    8.0464   -0.8496   18.5594 H   0  0  0  0  0  0  0  0  0  0  0  0
    4.6755    1.0955   17.1938 H   0  0  0  0  0  0  0  0  0  0  0  0
    3.3326    2.5204   18.6818 H   0  0  0  0  0  0  0  0  0  0  0  0
    2.7694    3.3170   20.9609 H   0  0  0  0  0  0  0  0  0  0  0  0
    4.1302    2.5666   22.8991 H   0  0  0  0  0  0  0  0  0  0  0  0
    6.0723    1.1068   22.5765 H   0  0  0  0  0  0  0  0  0  0  0  0
    6.7662   -1.4422   22.4726 H   0  0  0  0  0  0  0  0  0  0  0  0
    7.4595   -2.3228   21.1011 H   0  0  0  0  0  0  0  0  0  0  0  0
    9.6264   -2.1519   21.8534 H   0  0  0  0  0  0  0  0  0  0  0  0
    9.7571   -2.7486   24.2866 H   0  0  0  0  0  0  0  0  0  0  0  0
    8.0269   -2.2846   24.4729 H   0  0  0  0  0  0  0  0  0  0  0  0
    9.0560   -6.0641   24.1186 H   0  0  0  0  0  0  0  0  0  0  0  0
    6.8072   -5.2540   25.3706 H   0  0  0  0  0  0  0  0  0  0  0  0
    8.1773   -5.9956   26.2653 H   0  0  0  0  0  0  0  0  0  0  0  0
    8.0297   -4.2454   26.2081 H   0  0  0  0  0  0  0  0  0  0  0  0
   11.5959   -2.1139   22.1618 H   0  0  0  0  0  0  0  0  0  0  0  0
   14.8288    0.5777   22.8402 H   0  0  0  0  0  0  0  0  0  0  0  0
   13.2246    2.2706   23.7919 H   0  0  0  0  0  0  0  0  0  0  0  0
  1  2  1  0
  2  3  1  0
  3  4  2  0
  3  5  1  0
  5  6  1  0
  6  7  1  0
  8  7  1  1
  8  9  1  0
  9 10  2  0
  9 11  1  0
 11 12  1  0
 12 13  2  0
 13 14  1  0
 14 15  2  0
 15 16  1  0
 16 17  2  0
 17 18  1  0
 18 19  2  0
 19 20  1  0
 20 21  2  0
 11 22  1  0
 22 23  1  0
 23 24  1  0
 24 25  1  0
 25 26  2  0
 25 27  2  0
 25 28  1  0
 28 29  1  0
  8 30  1  0
 30 31  2  0
 31 32  1  0
 32 33  1  0
 32 34  2  0
 34 35  1  0
 35 36  2  0
 36 37  1  0
 37 38  2  0
 37  6  1  0
 23  8  1  0
 36 30  1  0
 21 12  1  0
 21 16  1  0
  1 39  1  0
  1 40  1  0
  1 41  1  0
  2 42  1  0
  5 43  1  0
  5 44  1  0
  7 45  1  0
  7 46  1  0
 13 47  1  0
 15 48  1  0
 17 49  1  0
 18 50  1  0
 19 51  1  0
 20 52  1  0
 22 53  1  0
 22 54  1  0
 23 55  1  6
 24 56  1  0
 24 57  1  0
 28 58  1  0
 29 59  1  0
 29 60  1  0
 29 61  1  0
 31 62  1  0
 34 63  1  0
 35 64  1  0
M  END
$$$$
