
     RDKit          3D

 66 70  0  0  0  0  0  0  0  0999 V2000
    8.6236   -1.8238   21.5650 C   0  0  0  0  0  0  0  0  0  0  0  0
    8.0422   -0.4578   21.2314 C   0  0  0  0  0  0  0  0  0  0  0  0
    6.5438   -0.4382   21.3990 C   0  0  0  0  0  0  0  0  0  0  0  0
    6.0490   -0.6175   22.4973 O   0  0  0  0  0  0  0  0  0  0  0  0
    5.8122   -0.2058   20.2411 N   0  0  0  0  0  0  0  0  0  0  0  0
    6.3296   -0.7035   18.9629 C   0  0  0  0  0  0  0  0  0  0  0  0
    5.1730   -1.0503   18.0463 C   0  0  0  0  0  0  0  0  0  0  0  0
    4.3398    0.2025   17.8256 C   0  0  0  0  0  0  0  0  0  0  0  0
    3.8776    0.7750   19.1421 C   0  0  0  0  0  0  0  0  0  0  0  0
    2.7131    1.5274   19.2362 C   0  0  0  0  0  0  0  0  0  0  0  0
    2.3442    2.1662   20.4079 C   0  0  0  0  0  0  0  0  0  0  0  0
    3.1913    2.0638   21.5069 C   0  0  0  0  0  0  0  0  0  0  0  0
    2.8527    2.7365   22.7090 N   0  0  0  0  0  0  0  0  0  0  0  0
    2.2388    3.9844   22.6297 C   0  0  0  0  0  0  0  0  0  0  0  0
    2.3098    4.6435   21.6099 O   0  0  0  0  0  0  0  0  0  0  0  0
    1.4598    4.4483   23.8571 C   0  0  0  0  0  0  0  0  0  0  0  0
    0.4229    3.4451   24.2923 C   0  0  0  0  0  0  0  0  0  0  0  0
    0.4648    2.8987   25.5516 C   0  0  0  0  0  0  0  0  0  0  0  0
   -0.3968    1.9648   26.0130 N   0  0  0  0  0  0  0  0  0  0  0  0
   -1.3399    1.5550   25.1960 C   0  0  0  0  0  0  0  0  0  0  0  0
   -1.5042    2.0309   23.8703 C   0  0  0  0  0  0  0  0  0  0  0  0
   -2.5580    1.5828   23.0313 C   0  0  0  0  0  0  0  0  0  0  0  0
   -2.7219    2.1041   21.7768 C   0  0  0  0  0  0  0  0  0  0  0  0
   -1.8269    3.0869   21.2998 C   0  0  0  0  0  0  0  0  0  0  0  0
   -0.7789    3.5193   22.0807 C   0  0  0  0  0  0  0  0  0  0  0  0
   -0.6002    3.0116   23.3994 C   0  0  0  0  0  0  0  0  0  0  0  0
    3.0718    2.0970   23.9158 N   0  0  0  0  0  0  0  0  0  0  0  0
    2.5250    0.7572   24.0653 C   0  0  0  0  0  0  0  0  0  0  0  0
    4.0264    2.6131   24.7947 C   0  0  0  0  0  0  0  0  0  0  0  0
    5.0017    3.5271   24.3679 C   0  0  0  0  0  0  0  0  0  0  0  0
    5.8782    4.0829   25.2903 C   0  0  0  0  0  0  0  0  0  0  0  0
    5.8201    3.7421   26.6384 C   0  0  0  0  0  0  0  0  0  0  0  0
    4.8615    2.8237   27.0443 C   0  0  0  0  0  0  0  0  0  0  0  0
    4.7643    2.3676   28.7239 Cl  0  0  0  0  0  0  0  0  0  0  0  0
    3.9679    2.2539   26.1455 C   0  0  0  0  0  0  0  0  0  0  0  0
    4.3211    1.2629   21.4799 C   0  0  0  0  0  0  0  0  0  0  0  0
    4.6586    0.6035   20.2949 C   0  0  0  0  0  0  0  0  0  0  0  0
    8.4221   -2.0528   22.6112 H   0  0  0  0  0  0  0  0  0  0  0  0
    9.7056   -1.8157   21.4121 H   0  0  0  0  0  0  0  0  0  0  0  0
    8.1966   -2.6307   20.9664 H   0  0  0  0  0  0  0  0  0  0  0  0
    8.4549    0.2689   21.9366 H   0  0  0  0  0  0  0  0  0  0  0  0
    8.3289   -0.1289   20.2345 H   0  0  0  0  0  0  0  0  0  0  0  0
    6.9869    0.0442   18.4904 H   0  0  0  0  0  0  0  0  0  0  0  0
    6.9380   -1.5907   19.1662 H   0  0  0  0  0  0  0  0  0  0  0  0
    5.5513   -1.4286   17.0922 H   0  0  0  0  0  0  0  0  0  0  0  0
    4.5692   -1.8313   18.5279 H   0  0  0  0  0  0  0  0  0  0  0  0
    4.9475    0.9534   17.2979 H   0  0  0  0  0  0  0  0  0  0  0  0
    3.4929   -0.0006   17.1632 H   0  0  0  0  0  0  0  0  0  0  0  0
    2.0912    1.6686   18.3603 H   0  0  0  0  0  0  0  0  0  0  0  0
    1.4210    2.7321   20.4709 H   0  0  0  0  0  0  0  0  0  0  0  0
    1.0305    5.4236   23.5998 H   0  0  0  0  0  0  0  0  0  0  0  0
    2.1856    4.6153   24.6601 H   0  0  0  0  0  0  0  0  0  0  0  0
    1.2513    3.1927   26.2500 H   0  0  0  0  0  0  0  0  0  0  0  0
   -2.0411    0.8164   25.5771 H   0  0  0  0  0  0  0  0  0  0  0  0
   -3.2415    0.8271   23.4099 H   0  0  0  0  0  0  0  0  0  0  0  0
   -3.5464    1.7757   21.1444 H   0  0  0  0  0  0  0  0  0  0  0  0
   -1.9800    3.5085   20.3088 H   0  0  0  0  0  0  0  0  0  0  0  0
   -0.0904    4.2602   21.6840 H   0  0  0  0  0  0  0  0  0  0  0  0
    1.8646    0.6941   24.9373 H   0  0  0  0  0  0  0  0  0  0  0  0
    1.9177    0.5567   23.1815 H   0  0  0  0  0  0  0  0  0  0  0  0
    3.3178   -0.0025   24.1396 H   0  0  0  0  0  0  0  0  0  0  0  0
    5.0634    3.8009   23.3181 H   0  0  0  0  0  0  0  0  0  0  0  0
    6.6221    4.8009   24.9542 H   0  0  0  0  0  0  0  0  0  0  0  0
    6.5020    4.1820   27.3587 H   0  0  0  0  0  0  0  0  0  0  0  0
    3.2092    1.5611   26.4976 H   0  0  0  0  0  0  0  0  0  0  0  0
    4.9230    1.1383   22.3726 H   0  0  0  0  0  0  0  0  0  0  0  0
  1  2  1  0
  2  3  1  0
  3  4  2  0
  3  5  1  0
  5  6  1  0
  6  7  1  0
  7  8  1  0
  8  9  1  0
  9 10  2  0
 10 11  1  0
 11 12  2  0
 12 13  1  0
 13 14  1  0
 14 15  2  0
 14 16  1  0
 16 17  1  0
 17 18  2  0
 18 19  1  0
 19 20  2  0
 20 21  1  0
 21 22  2  0
 22 23  1  0
 23 24  2  0
 24 25  1  0
 25 26  2  0
 13 27  1  0
 27 28  1  0
 27 29  1  0
 29 30  2  0
 30 31  1  0
 31 32  2  0
 32 33  1  0
 33 34  1  0
 33 35  2  0
 12 36  1  0
 36 37  2  0
 37  5  1  0
 37  9  1  0
 26 17  1  0
 35 29  1  0
 26 21  1  0
  1 38  1  0
  1 39  1  0
  1 40  1  0
  2 41  1  0
  2 42  1  0
  6 43  1  0
  6 44  1  0
  7 45  1  0
  7 46  1  0
  8 47  1  0
  8 48  1  0
 10 49  1  0
 11 50  1  0
 16 51  1  0
 16 52  1  0
 18 53  1  0
 20 54  1  0
 22 55  1  0
 23 56  1  0
 24 57  1  0
 25 58  1  0
 28 59  1  0
 28 60  1  0
 28 61  1  0
 30 62  1  0
 31 63  1  0
 32 64  1  0
 35 65  1  0
 36 66  1  0
M  END
$$$$
