
     RDKit          3D

 70 75  0  0  0  0  0  0  0  0999 V2000
    8.6322    3.5774   26.4399 O   0  0  0  0  0  0  0  0  0  0  0  0
    7.9660    3.0945   25.5399 C   0  0  0  0  0  0  0  0  0  0  0  0
    7.7382    1.5899   25.4023 C   0  0  0  0  0  0  0  0  0  0  0  0
    8.6427    0.9929   24.3867 N   0  0  1  0  0  0  0  0  0  0  0  0
   10.0851    1.2049   24.7759 C   0  0  0  0  0  0  0  0  0  0  0  0
   11.0470    0.4813   23.8690 C   0  0  0  0  0  0  0  0  0  0  0  0
   12.3925    0.8414   23.8932 C   0  0  0  0  0  0  0  0  0  0  0  0
   13.3441    0.1034   23.2056 C   0  0  0  0  0  0  0  0  0  0  0  0
   12.9294   -1.0262   22.5085 C   0  0  0  0  0  0  0  0  0  0  0  0
   14.1189   -1.9931   21.6799 Cl  0  0  0  0  0  0  0  0  0  0  0  0
   11.5882   -1.3865   22.4533 C   0  0  0  0  0  0  0  0  0  0  0  0
   10.6278   -0.6002   23.0908 C   0  0  0  0  0  0  0  0  0  0  0  0
    9.1476   -0.8835   22.9321 C   0  0  2  0  0  0  0  0  0  0  0  0
    8.4807   -0.0485   21.8330 C   0  0  0  0  0  0  0  0  0  0  0  0
    8.7302    1.1332   21.6666 O   0  0  0  0  0  0  0  0  0  0  0  0
    7.4516   -0.6881   21.1844 N   0  0  0  0  0  0  0  0  0  0  0  0
    6.7077   -0.0985   20.1209 C   0  0  0  0  0  0  0  0  0  0  0  0
    7.0992   -0.2964   18.8225 C   0  0  0  0  0  0  0  0  0  0  0  0
    6.4136    0.1310   17.7349 N   0  0  0  0  0  0  0  0  0  0  0  0
    5.3258    0.8301   17.9408 C   0  0  0  0  0  0  0  0  0  0  0  0
    4.8385    1.1709   19.2337 C   0  0  0  0  0  0  0  0  0  0  0  0
    3.7053    2.0070   19.4109 C   0  0  0  0  0  0  0  0  0  0  0  0
    3.2395    2.2869   20.6673 C   0  0  0  0  0  0  0  0  0  0  0  0
    3.8822    1.7375   21.8012 C   0  0  0  0  0  0  0  0  0  0  0  0
    4.9991    0.9506   21.6548 C   0  0  0  0  0  0  0  0  0  0  0  0
    5.5239    0.6689   20.3640 C   0  0  0  0  0  0  0  0  0  0  0  0
    8.3964   -0.4746   24.1991 C   0  0  0  0  0  0  0  0  0  0  0  0
    7.3682    3.8419   24.5598 N   0  0  0  0  0  0  0  0  0  0  0  0
    7.4163    5.2507   24.4874 C   0  0  0  0  0  0  0  0  0  0  0  0
    8.5812    5.9536   24.7882 C   0  0  0  0  0  0  0  0  0  0  0  0
    8.6108    7.3325   24.6911 C   0  0  0  0  0  0  0  0  0  0  0  0
    7.4671    8.0412   24.3173 C   0  0  0  0  0  0  0  0  0  0  0  0
    7.5042    9.4512   24.2608 N   0  0  0  0  0  0  0  0  0  0  0  0
    6.5665   10.1383   23.3890 C   0  0  0  0  0  0  0  0  0  0  0  0
    7.1225   11.5006   23.0047 C   0  0  0  0  0  0  0  0  0  0  0  0
    7.5064   12.2399   24.1404 O   0  0  0  0  0  0  0  0  0  0  0  0
    8.5421   11.6103   24.8435 C   0  0  0  0  0  0  0  0  0  0  0  0
    8.2872   10.1474   25.1540 C   0  0  0  0  0  0  0  0  0  0  0  0
    8.8294    9.6417   26.1208 O   0  0  0  0  0  0  0  0  0  0  0  0
    6.3155    7.3309   23.9627 C   0  0  0  0  0  0  0  0  0  0  0  0
    6.2919    5.9476   24.0516 C   0  0  0  0  0  0  0  0  0  0  0  0
    6.6964    1.3749   25.1322 H   0  0  0  0  0  0  0  0  0  0  0  0
    7.9244    1.1413   26.3831 H   0  0  0  0  0  0  0  0  0  0  0  0
    8.5399    1.4706   23.4622 H   0  0  0  0  0  0  0  0  0  0  0  0
   10.2207    0.8596   25.8093 H   0  0  0  0  0  0  0  0  0  0  0  0
   10.3027    2.2767   24.7882 H   0  0  0  0  0  0  0  0  0  0  0  0
   12.6964    1.7076   24.4763 H   0  0  0  0  0  0  0  0  0  0  0  0
   14.3933    0.3804   23.2244 H   0  0  0  0  0  0  0  0  0  0  0  0
   11.2927   -2.2719   21.8970 H   0  0  0  0  0  0  0  0  0  0  0  0
    8.9851   -1.9401   22.7045 H   0  0  0  0  0  0  0  0  0  0  0  0
    7.2240   -1.6383   21.4432 H   0  0  0  0  0  0  0  0  0  0  0  0
    8.0216   -0.8373   18.6223 H   0  0  0  0  0  0  0  0  0  0  0  0
    4.7812    1.1685   17.0595 H   0  0  0  0  0  0  0  0  0  0  0  0
    3.2468    2.4312   18.5222 H   0  0  0  0  0  0  0  0  0  0  0  0
    2.3844    2.9446   20.8008 H   0  0  0  0  0  0  0  0  0  0  0  0
    3.4915    1.9444   22.7933 H   0  0  0  0  0  0  0  0  0  0  0  0
    5.4989    0.5291   22.5219 H   0  0  0  0  0  0  0  0  0  0  0  0
    8.7572   -1.0221   25.0750 H   0  0  0  0  0  0  0  0  0  0  0  0
    7.3210   -0.6619   24.1064 H   0  0  0  0  0  0  0  0  0  0  0  0
    6.7299    3.3807   23.9264 H   0  0  0  0  0  0  0  0  0  0  0  0
    9.4607    5.4187   25.1277 H   0  0  0  0  0  0  0  0  0  0  0  0
    9.5281    7.8504   24.9413 H   0  0  0  0  0  0  0  0  0  0  0  0
    6.4166    9.5249   22.4977 H   0  0  0  0  0  0  0  0  0  0  0  0
    5.5958   10.2395   23.8849 H   0  0  0  0  0  0  0  0  0  0  0  0
    7.9735   11.3665   22.3239 H   0  0  0  0  0  0  0  0  0  0  0  0
    6.3628   12.0886   22.4872 H   0  0  0  0  0  0  0  0  0  0  0  0
    8.6392   12.1191   25.7976 H   0  0  0  0  0  0  0  0  0  0  0  0
    9.5195   11.6920   24.3348 H   0  0  0  0  0  0  0  0  0  0  0  0
    5.4242    7.8439   23.6122 H   0  0  0  0  0  0  0  0  0  0  0  0
    5.3880    5.4048   23.7818 H   0  0  0  0  0  0  0  0  0  0  0  0
  1  2  2  0
  2  3  1  0
  3  4  1  0
  4  5  1  0
  5  6  1  0
  6  7  2  0
  7  8  1  0
  8  9  2  0
  9 10  1  0
  9 11  1  0
 11 12  2  0
 12 13  1  0
 13 14  1  0
 14 15  2  0
 14 16  1  0
 16 17  1  0
 17 18  2  0
 18 19  1  0
 19 20  2  0
 20 21  1  0
 21 22  2  0
 22 23  1  0
 23 24  2  0
 24 25  1  0
 25 26  2  0
 13 27  1  0
  2 28  1  0
 28 29  1  0
 29 30  2  0
 30 31  1  0
 31 32  2  0
 32 33  1  0
 33 34  1  0
 34 35  1  0
 35 36  1  0
 36 37  1  0
 37 38  1  0
 38 39  2  0
 32 40  1  0
 40 41  2  0
 27  4  1  0
 41 29  1  0
 12  6  1  0
 26 17  1  0
 38 33  1  0
 26 21  1  0
  3 42  1  0
  3 43  1  0
  4 44  1  6
  5 45  1  0
  5 46  1  0
  7 47  1  0
  8 48  1  0
 11 49  1  0
 13 50  1  6
 16 51  1  0
 18 52  1  0
 20 53  1  0
 22 54  1  0
 23 55  1  0
 24 56  1  0
 25 57  1  0
 27 58  1  0
 27 59  1  0
 28 60  1  0
 30 61  1  0
 31 62  1  0
 34 63  1  0
 34 64  1  0
 35 65  1  0
 35 66  1  0
 37 67  1  0
 37 68  1  0
 40 69  1  0
 41 70  1  0
M  CHG  1   4   1
M  END
$$$$
