
     RDKit          3D

 58 62  0  0  0  0  0  0  0  0999 V2000
   -6.9835    3.5643  -22.4462 C   0  0  0  0  0  0  0  0  0  0  0  0
   -7.7984    2.5718  -23.1639 N   0  0  0  0  0  0  0  0  0  0  0  0
   -7.5071    2.5214  -24.6125 C   0  0  0  0  0  0  0  0  0  0  0  0
   -8.1303    1.3120  -25.3540 C   0  0  0  0  0  0  0  0  0  0  0  0
   -8.9690    0.4446  -24.5559 N   0  0  0  0  0  0  0  0  0  0  0  0
   -8.5045   -0.9015  -24.2747 C   0  0  0  0  0  0  0  0  0  0  0  0
   -9.0596   -1.4127  -22.9273 C   0  0  2  0  0  0  0  0  0  0  0  0
   -8.4007   -0.5559  -21.8158 C   0  0  0  0  0  0  0  0  0  0  0  0
   -8.5612    0.6341  -21.6264 O   0  0  0  0  0  0  0  0  0  0  0  0
   -7.5040   -1.3193  -21.1238 N   0  0  0  0  0  0  0  0  0  0  0  0
   -6.6564   -0.7927  -20.1104 C   0  0  0  0  0  0  0  0  0  0  0  0
   -6.8901   -1.1364  -18.8031 C   0  0  0  0  0  0  0  0  0  0  0  0
   -6.1347   -0.7275  -17.7564 N   0  0  0  0  0  0  0  0  0  0  0  0
   -5.1120    0.0532  -18.0047 C   0  0  0  0  0  0  0  0  0  0  0  0
   -4.7679    0.5027  -19.3129 C   0  0  0  0  0  0  0  0  0  0  0  0
   -3.6742    1.3812  -19.5349 C   0  0  0  0  0  0  0  0  0  0  0  0
   -3.3332    1.7711  -20.7988 C   0  0  0  0  0  0  0  0  0  0  0  0
   -4.0687    1.2923  -21.9042 C   0  0  0  0  0  0  0  0  0  0  0  0
   -5.1438    0.4554  -21.7186 C   0  0  0  0  0  0  0  0  0  0  0  0
   -5.5412    0.0516  -20.4108 C   0  0  0  0  0  0  0  0  0  0  0  0
   -7.2298   -2.5717  -21.7936 C   0  0  0  0  0  0  0  0  0  0  0  0
   -8.5357   -2.8259  -22.5539 C   0  0  2  0  0  0  0  0  0  0  0  0
   -8.4232   -3.8129  -23.7094 C   0  0  0  0  0  0  0  0  0  0  0  0
  -10.5708   -1.2702  -23.0140 C   0  0  0  0  0  0  0  0  0  0  0  0
  -11.4636   -2.2217  -22.5064 C   0  0  0  0  0  0  0  0  0  0  0  0
  -12.8127   -1.9365  -22.4658 C   0  0  0  0  0  0  0  0  0  0  0  0
  -13.6370   -2.8071  -21.8538 F   0  0  0  0  0  0  0  0  0  0  0  0
  -13.3530   -0.7763  -23.0050 C   0  0  0  0  0  0  0  0  0  0  0  0
  -12.4880    0.1303  -23.5857 C   0  0  0  0  0  0  0  0  0  0  0  0
  -11.1157   -0.1169  -23.6067 C   0  0  0  0  0  0  0  0  0  0  0  0
  -10.2157    0.8930  -24.2427 C   0  0  0  0  0  0  0  0  0  0  0  0
  -10.5526    2.0632  -24.4323 O   0  0  0  0  0  0  0  0  0  0  0  0
   -7.1950    3.4970  -21.3775 H   0  0  0  0  0  0  0  0  0  0  0  0
   -5.9131    3.3714  -22.6021 H   0  0  0  0  0  0  0  0  0  0  0  0
   -7.2254    4.5723  -22.8024 H   0  0  0  0  0  0  0  0  0  0  0  0
   -7.6739    1.6476  -22.7259 H   0  0  0  0  0  0  0  0  0  0  0  0
   -8.8001    2.7914  -23.0430 H   0  0  0  0  0  0  0  0  0  0  0  0
   -7.8900    3.4388  -25.0688 H   0  0  0  0  0  0  0  0  0  0  0  0
   -6.4219    2.5110  -24.7749 H   0  0  0  0  0  0  0  0  0  0  0  0
   -7.3447    0.6770  -25.7753 H   0  0  0  0  0  0  0  0  0  0  0  0
   -8.7241    1.6625  -26.2027 H   0  0  0  0  0  0  0  0  0  0  0  0
   -8.8167   -1.5740  -25.0846 H   0  0  0  0  0  0  0  0  0  0  0  0
   -7.4086   -0.8790  -24.2263 H   0  0  0  0  0  0  0  0  0  0  0  0
   -7.7554   -1.7478  -18.5514 H   0  0  0  0  0  0  0  0  0  0  0  0
   -4.5305    0.4082  -17.1506 H   0  0  0  0  0  0  0  0  0  0  0  0
   -3.1274    1.7476  -18.6729 H   0  0  0  0  0  0  0  0  0  0  0  0
   -2.5072    2.4589  -20.9608 H   0  0  0  0  0  0  0  0  0  0  0  0
   -3.7893    1.6035  -22.9064 H   0  0  0  0  0  0  0  0  0  0  0  0
   -5.6828    0.0871  -22.5862 H   0  0  0  0  0  0  0  0  0  0  0  0
   -6.9834   -3.3443  -21.0642 H   0  0  0  0  0  0  0  0  0  0  0  0
   -6.3823   -2.4717  -22.4897 H   0  0  0  0  0  0  0  0  0  0  0  0
   -9.2291   -3.2159  -21.8046 H   0  0  0  0  0  0  0  0  0  0  0  0
   -8.1355   -4.8087  -23.3623 H   0  0  0  0  0  0  0  0  0  0  0  0
   -9.3740   -3.9064  -24.2468 H   0  0  0  0  0  0  0  0  0  0  0  0
   -7.6637   -3.4912  -24.4308 H   0  0  0  0  0  0  0  0  0  0  0  0
  -11.1381   -3.1552  -22.0621 H   0  0  0  0  0  0  0  0  0  0  0  0
  -14.4182   -0.5957  -22.9116 H   0  0  0  0  0  0  0  0  0  0  0  0
  -12.8552    1.0583  -24.0106 H   0  0  0  0  0  0  0  0  0  0  0  0
  1  2  1  0
  2  3  1  0
  3  4  1  0
  4  5  1  0
  5  6  1  0
  7  6  1  6
  7  8  1  0
  8  9  2  0
  8 10  1  0
 10 11  1  0
 11 12  2  0
 12 13  1  0
 13 14  2  0
 14 15  1  0
 15 16  2  0
 16 17  1  0
 17 18  2  0
 18 19  1  0
 19 20  2  0
 10 21  1  0
 21 22  1  0
 22 23  1  0
  7 24  1  0
 24 25  2  0
 25 26  1  0
 26 27  1  0
 26 28  2  0
 28 29  1  0
 29 30  2  0
 30 31  1  0
 31 32  2  0
 31  5  1  0
 22  7  1  0
 30 24  1  0
 20 11  1  0
 20 15  1  0
  1 33  1  0
  1 34  1  0
  1 35  1  0
  2 36  1  0
  2 37  1  0
  3 38  1  0
  3 39  1  0
  4 40  1  0
  4 41  1  0
  6 42  1  0
  6 43  1  0
 12 44  1  0
 14 45  1  0
 16 46  1  0
 17 47  1  0
 18 48  1  0
 19 49  1  0
 21 50  1  0
 21 51  1  0
 22 52  1  1
 23 53  1  0
 23 54  1  0
 23 55  1  0
 25 56  1  0
 28 57  1  0
 29 58  1  0
M  CHG  1   2   1
M  END
