
     RDKit          3D

 58 62  0  0  0  0  0  0  0  0999 V2000
    7.2551    4.5847   22.3419 C   0  0  0  0  0  0  0  0  0  0  0  0
    8.1129    3.6269   23.0567 N   0  0  0  0  0  0  0  0  0  0  0  0
    7.8548    3.5920   24.5120 C   0  0  0  0  0  0  0  0  0  0  0  0
    8.5276    2.4125   25.2583 C   0  0  0  0  0  0  0  0  0  0  0  0
    9.3727    1.5558   24.4555 N   0  0  0  0  0  0  0  0  0  0  0  0
    8.9402    0.1930   24.2057 C   0  0  0  0  0  0  0  0  0  0  0  0
    9.4799   -0.3244   22.8545 C   0  0  2  0  0  0  0  0  0  0  0  0
    8.7732    0.4956   21.7446 C   0  0  0  0  0  0  0  0  0  0  0  0
    8.8961    1.6864   21.5331 O   0  0  0  0  0  0  0  0  0  0  0  0
    7.8834   -0.3035   21.0847 N   0  0  0  0  0  0  0  0  0  0  0  0
    6.9995    0.1829   20.0823 C   0  0  0  0  0  0  0  0  0  0  0  0
    7.2143   -0.1753   18.7757 C   0  0  0  0  0  0  0  0  0  0  0  0
    6.4251    0.1954   17.7397 N   0  0  0  0  0  0  0  0  0  0  0  0
    5.3865    0.9514   17.9985 C   0  0  0  0  0  0  0  0  0  0  0  0
    5.0585    1.4124   19.3068 C   0  0  0  0  0  0  0  0  0  0  0  0
    3.9457    2.2638   19.5393 C   0  0  0  0  0  0  0  0  0  0  0  0
    3.6215    2.6646   20.8042 C   0  0  0  0  0  0  0  0  0  0  0  0
    4.3940    2.2243   21.9003 C   0  0  0  0  0  0  0  0  0  0  0  0
    5.4879    1.4146   21.7040 C   0  0  0  0  0  0  0  0  0  0  0  0
    5.8679    1.0008   20.3942 C   0  0  0  0  0  0  0  0  0  0  0  0
    7.6591   -1.5519   21.7799 C   0  0  0  0  0  0  0  0  0  0  0  0
    8.9879   -1.7575   22.5149 C   0  0  2  0  0  0  0  0  0  0  0  0
    8.9283   -2.7283   23.6879 C   0  0  0  0  0  0  0  0  0  0  0  0
   10.9881   -0.1388   22.9053 C   0  0  0  0  0  0  0  0  0  0  0  0
   11.8959   -1.0733   22.3930 C   0  0  0  0  0  0  0  0  0  0  0  0
   13.2353   -0.7515   22.3180 C   0  0  0  0  0  0  0  0  0  0  0  0
   14.0702   -1.6088   21.7015 F   0  0  0  0  0  0  0  0  0  0  0  0
   13.7545    0.4318   22.8268 C   0  0  0  0  0  0  0  0  0  0  0  0
   12.8772    1.3234   23.4124 C   0  0  0  0  0  0  0  0  0  0  0  0
   11.5132    1.0387   23.4677 C   0  0  0  0  0  0  0  0  0  0  0  0
   10.5993    2.0335   24.1077 C   0  0  0  0  0  0  0  0  0  0  0  0
   10.9073    3.2155   24.2714 O   0  0  0  0  0  0  0  0  0  0  0  0
    7.4451    4.5059   21.2699 H   0  0  0  0  0  0  0  0  0  0  0  0
    6.1942    4.3648   22.5245 H   0  0  0  0  0  0  0  0  0  0  0  0
    7.4763    5.6047   22.6768 H   0  0  0  0  0  0  0  0  0  0  0  0
    8.0049    2.6926   22.6361 H   0  0  0  0  0  0  0  0  0  0  0  0
    9.1052    3.8722   22.9102 H   0  0  0  0  0  0  0  0  0  0  0  0
    8.2216    4.5270   24.9453 H   0  0  0  0  0  0  0  0  0  0  0  0
    6.7741    3.5542   24.6987 H   0  0  0  0  0  0  0  0  0  0  0  0
    7.7695    1.7630   25.7068 H   0  0  0  0  0  0  0  0  0  0  0  0
    9.1297    2.7931   26.0880 H   0  0  0  0  0  0  0  0  0  0  0  0
    9.2887   -0.4573   25.0189 H   0  0  0  0  0  0  0  0  0  0  0  0
    7.8433    0.1844   24.1813 H   0  0  0  0  0  0  0  0  0  0  0  0
    8.0907   -0.7666   18.5144 H   0  0  0  0  0  0  0  0  0  0  0  0
    4.7769    1.2763   17.1520 H   0  0  0  0  0  0  0  0  0  0  0  0
    3.3702    2.6009   18.6840 H   0  0  0  0  0  0  0  0  0  0  0  0
    2.7803    3.3318   20.9737 H   0  0  0  0  0  0  0  0  0  0  0  0
    4.1279    2.5439   22.9035 H   0  0  0  0  0  0  0  0  0  0  0  0
    6.0558    1.0755   22.5651 H   0  0  0  0  0  0  0  0  0  0  0  0
    7.4186   -2.3428   21.0684 H   0  0  0  0  0  0  0  0  0  0  0  0
    6.8245   -1.4641   22.4930 H   0  0  0  0  0  0  0  0  0  0  0  0
    9.6754   -2.1402   21.7566 H   0  0  0  0  0  0  0  0  0  0  0  0
    8.6611   -3.7372   23.3629 H   0  0  0  0  0  0  0  0  0  0  0  0
    9.8928   -2.7867   24.2055 H   0  0  0  0  0  0  0  0  0  0  0  0
    8.1759   -2.4161   24.4209 H   0  0  0  0  0  0  0  0  0  0  0  0
   11.5871   -2.0225   21.9706 H   0  0  0  0  0  0  0  0  0  0  0  0
   14.8119    0.6403   22.7070 H   0  0  0  0  0  0  0  0  0  0  0  0
   13.2274    2.2680   23.8144 H   0  0  0  0  0  0  0  0  0  0  0  0
  1  2  1  0
  2  3  1  0
  3  4  1  0
  4  5  1  0
  5  6  1  0
  7  6  1  1
  7  8  1  0
  8  9  2  0
  8 10  1  0
 10 11  1  0
 11 12  2  0
 12 13  1  0
 13 14  2  0
 14 15  1  0
 15 16  2  0
 16 17  1  0
 17 18  2  0
 18 19  1  0
 19 20  2  0
 10 21  1  0
 21 22  1  0
 22 23  1  0
  7 24  1  0
 24 25  2  0
 25 26  1  0
 26 27  1  0
 26 28  2  0
 28 29  1  0
 29 30  2  0
 30 31  1  0
 31 32  2  0
 31  5  1  0
 22  7  1  0
 30 24  1  0
 20 11  1  0
 20 15  1  0
  1 33  1  0
  1 34  1  0
  1 35  1  0
  2 36  1  0
  2 37  1  0
  3 38  1  0
  3 39  1  0
  4 40  1  0
  4 41  1  0
  6 42  1  0
  6 43  1  0
 12 44  1  0
 14 45  1  0
 16 46  1  0
 17 47  1  0
 18 48  1  0
 19 49  1  0
 21 50  1  0
 21 51  1  0
 22 52  1  6
 23 53  1  0
 23 54  1  0
 23 55  1  0
 25 56  1  0
 28 57  1  0
 29 58  1  0
M  CHG  1   2   1
M  END
$$$$
