
     RDKit          3D

 58 63  0  0  0  0  0  0  0  0999 V2000
   -8.3552    0.6243  -21.3054 O   0  0  0  0  0  0  0  0  0  0  0  0
   -8.1457   -0.4707  -21.7902 C   0  0  0  0  0  0  0  0  0  0  0  0
   -7.2609   -1.4938  -21.0540 C   0  0  0  0  0  0  0  0  0  0  0  0
   -6.4726   -0.8870  -19.9282 C   0  0  0  0  0  0  0  0  0  0  0  0
   -6.7355   -1.1663  -18.6131 C   0  0  0  0  0  0  0  0  0  0  0  0
   -6.0599   -0.6538  -17.5492 N   0  0  0  0  0  0  0  0  0  0  0  0
   -5.0750    0.1718  -17.8099 C   0  0  0  0  0  0  0  0  0  0  0  0
   -4.6921    0.5528  -19.1263 C   0  0  0  0  0  0  0  0  0  0  0  0
   -3.6328    1.4632  -19.3676 C   0  0  0  0  0  0  0  0  0  0  0  0
   -3.3280    1.8626  -20.6391 C   0  0  0  0  0  0  0  0  0  0  0  0
   -4.0315    1.3206  -21.7351 C   0  0  0  0  0  0  0  0  0  0  0  0
   -5.0390    0.4122  -21.5320 C   0  0  0  0  0  0  0  0  0  0  0  0
   -5.4101    0.0172  -20.2164 C   0  0  0  0  0  0  0  0  0  0  0  0
   -8.7581   -0.8587  -22.9751 N   0  0  0  0  0  0  0  0  0  0  0  0
   -9.8353   -0.0191  -23.5216 C   0  0  0  0  0  0  0  0  0  0  0  0
  -11.0785   -0.8319  -23.8456 C   0  0  0  0  0  0  0  0  0  0  0  0
  -11.6273   -0.9890  -25.1202 C   0  0  0  0  0  0  0  0  0  0  0  0
  -12.7718   -1.7514  -25.3153 C   0  0  0  0  0  0  0  0  0  0  0  0
  -13.4290   -2.3245  -24.2421 C   0  0  0  0  0  0  0  0  0  0  0  0
  -12.8663   -2.2002  -22.9827 C   0  0  0  0  0  0  0  0  0  0  0  0
  -13.6534   -2.9905  -21.6509 Cl  0  0  0  0  0  0  0  0  0  0  0  0
  -11.6743   -1.5161  -22.7933 C   0  0  0  0  0  0  0  0  0  0  0  0
   -8.1474   -1.8027  -23.8663 C   0  0  2  0  0  0  0  0  0  0  0  0
   -8.2227   -3.2970  -23.5211 C   0  0  0  0  0  0  0  0  0  0  0  0
   -7.4423   -3.8621  -24.6813 N   0  0  1  0  0  0  0  0  0  0  0  0
   -8.1348   -4.8907  -25.4606 C   0  0  0  0  0  0  0  0  0  0  0  0
   -7.9141   -6.3152  -25.0865 C   0  0  0  0  0  0  0  0  0  0  0  0
   -7.3056   -5.7553  -26.3456 C   0  0  0  0  0  0  0  0  0  0  0  0
   -7.1431   -2.5881  -25.4395 C   0  0  2  0  0  0  0  0  0  0  0  0
   -6.6665   -1.6846  -24.3006 C   0  0  0  0  0  0  0  0  0  0  0  0
   -8.4812   -1.8536  -25.3808 C   0  0  0  0  0  0  0  0  0  0  0  0
   -7.9235   -2.2808  -20.6672 H   0  0  0  0  0  0  0  0  0  0  0  0
   -6.5672   -1.9551  -21.7597 H   0  0  0  0  0  0  0  0  0  0  0  0
   -7.5469   -1.8454  -18.3527 H   0  0  0  0  0  0  0  0  0  0  0  0
   -4.5494    0.6106  -16.9604 H   0  0  0  0  0  0  0  0  0  0  0  0
   -3.0857    1.8504  -18.5144 H   0  0  0  0  0  0  0  0  0  0  0  0
   -2.5595    2.6092  -20.8121 H   0  0  0  0  0  0  0  0  0  0  0  0
   -3.7750    1.6265  -22.7448 H   0  0  0  0  0  0  0  0  0  0  0  0
   -5.5820    0.0171  -22.3843 H   0  0  0  0  0  0  0  0  0  0  0  0
   -9.4780    0.5247  -24.4040 H   0  0  0  0  0  0  0  0  0  0  0  0
  -10.0357    0.7318  -22.7543 H   0  0  0  0  0  0  0  0  0  0  0  0
  -11.1307   -0.6123  -26.0029 H   0  0  0  0  0  0  0  0  0  0  0  0
  -13.1030   -1.9605  -26.3219 H   0  0  0  0  0  0  0  0  0  0  0  0
  -14.3308   -2.9036  -24.3834 H   0  0  0  0  0  0  0  0  0  0  0  0
  -11.1453   -1.5472  -21.8593 H   0  0  0  0  0  0  0  0  0  0  0  0
   -9.2329   -3.6955  -23.5523 H   0  0  0  0  0  0  0  0  0  0  0  0
   -7.7387   -3.5629  -22.5834 H   0  0  0  0  0  0  0  0  0  0  0  0
   -6.5490   -4.2704  -24.3445 H   0  0  0  0  0  0  0  0  0  0  0  0
   -9.1199   -4.6152  -25.8118 H   0  0  0  0  0  0  0  0  0  0  0  0
   -7.2644   -6.4757  -24.2332 H   0  0  0  0  0  0  0  0  0  0  0  0
   -8.7444   -7.0049  -25.1730 H   0  0  0  0  0  0  0  0  0  0  0  0
   -6.2390   -5.5518  -26.3440 H   0  0  0  0  0  0  0  0  0  0  0  0
   -7.7185   -6.0570  -27.2998 H   0  0  0  0  0  0  0  0  0  0  0  0
   -6.5943   -2.7445  -26.3605 H   0  0  0  0  0  0  0  0  0  0  0  0
   -5.9263   -2.1580  -23.6462 H   0  0  0  0  0  0  0  0  0  0  0  0
   -6.3671   -0.6795  -24.6040 H   0  0  0  0  0  0  0  0  0  0  0  0
   -9.3807   -2.4185  -25.6495 H   0  0  0  0  0  0  0  0  0  0  0  0
   -8.4643   -0.8845  -25.8702 H   0  0  0  0  0  0  0  0  0  0  0  0
  1  2  2  0
  2  3  1  0
  3  4  1  0
  4  5  2  0
  5  6  1  0
  6  7  2  0
  7  8  1  0
  8  9  2  0
  9 10  1  0
 10 11  2  0
 11 12  1  0
 12 13  2  0
  2 14  1  0
 14 15  1  0
 15 16  1  0
 16 17  2  0
 17 18  1  0
 18 19  2  0
 19 20  1  0
 20 21  1  0
 20 22  2  0
 23 14  1  1
 23 24  1  0
 24 25  1  0
 25 26  1  0
 26 27  1  0
 27 28  1  0
 25 29  1  0
 29 30  1  0
 29 31  1  0
 13  4  1  0
 22 16  1  0
 30 23  1  0
 13  8  1  0
 31 23  1  0
 28 26  1  0
  3 32  1  0
  3 33  1  0
  5 34  1  0
  7 35  1  0
  9 36  1  0
 10 37  1  0
 11 38  1  0
 12 39  1  0
 15 40  1  0
 15 41  1  0
 17 42  1  0
 18 43  1  0
 19 44  1  0
 22 45  1  0
 24 46  1  0
 24 47  1  0
 25 48  1  1
 26 49  1  0
 27 50  1  0
 27 51  1  0
 28 52  1  0
 28 53  1  0
 29 54  1  6
 30 55  1  0
 30 56  1  0
 31 57  1  0
 31 58  1  0
M  CHG  1  25   1
M  END
