mobile
  PyMOL3.1          3D                             0

 54 58  0  0  0  0  0  0  0  0999 V2000
   -8.7911    0.2494  -21.3766 O   0  0  0  0  0  0  0  0  0  0  0  0
   -8.2983   -0.7906  -21.7799 C   0  0  0  0  0  0  0  0  0  0  0  0
   -7.2308   -1.4668  -21.2046 N   0  0  0  0  0  0  0  0  0  0  0  0
   -6.4701   -0.9898  -20.0526 C   0  0  0  0  0  0  0  0  0  0  0  0
   -5.3544   -0.1223  -20.2681 C   0  0  0  0  0  0  0  0  0  0  0  0
   -4.8173    0.1937  -21.5435 C   0  0  0  0  0  0  0  0  0  0  0  0
   -3.7654    1.0538  -21.6693 C   0  0  0  0  0  0  0  0  0  0  0  0
   -3.1933    1.6470  -20.5492 C   0  0  0  0  0  0  0  0  0  0  0  0
   -3.6648    1.3635  -19.2979 C   0  0  0  0  0  0  0  0  0  0  0  0
   -4.7479    0.4693  -19.1192 C   0  0  0  0  0  0  0  0  0  0  0  0
   -5.2856    0.1392  -17.8457 C   0  0  0  0  0  0  0  0  0  0  0  0
   -6.3305   -0.6617  -17.6586 N   0  0  0  0  0  0  0  0  0  0  0  0
   -6.9018   -1.1964  -18.7486 C   0  0  0  0  0  0  0  0  0  0  0  0
   -7.0393   -2.7507  -21.7480 C   0  0  0  0  0  0  0  0  0  0  0  0
   -6.1215   -3.4899  -21.4792 O   0  0  0  0  0  0  0  0  0  0  0  0
   -8.1740   -2.9951  -22.7148 C   0  0  0  0  0  0  0  0  0  0  0  0
   -8.7499   -1.5962  -23.0061 C   0  0  0  0  0  0  0  0  0  0  0  0
  -10.2748   -1.5294  -23.1450 C   0  0  0  0  0  0  0  0  0  0  0  0
  -11.1149   -2.3413  -22.3780 C   0  0  0  0  0  0  0  0  0  0  0  0
  -12.4729   -2.0904  -22.3770 C   0  0  0  0  0  0  0  0  0  0  0  0
  -13.5054   -3.0315  -21.3373 Cl  0  0  0  0  0  0  0  0  0  0  0  0
  -13.0294   -1.0886  -23.1330 C   0  0  0  0  0  0  0  0  0  0  0  0
  -12.2055   -0.3176  -23.9297 C   0  0  0  0  0  0  0  0  0  0  0  0
  -10.8312   -0.5233  -23.9520 C   0  0  0  0  0  0  0  0  0  0  0  0
   -9.9852    0.3334  -24.8656 C   0  0  0  0  0  0  0  0  0  0  0  0
   -8.0477   -0.9375  -24.2250 C   0  0  0  0  0  0  0  0  0  0  0  0
   -8.5839    0.4059  -24.4284 N   0  3  0  0  0  0  0  0  0  0  0  0
   -7.7944    1.2982  -25.2748 C   0  0  0  0  0  0  0  0  0  0  0  0
   -7.0014    2.3423  -24.5068 C   0  0  0  0  0  0  0  0  0  0  0  0
   -5.9894    2.8413  -24.9921 O   0  0  0  0  0  0  0  0  0  0  0  0
   -7.4443    2.6652  -23.2952 N   0  0  0  0  0  0  0  0  0  0  0  0
   -6.7011    3.5357  -22.4036 C   0  0  0  0  0  0  0  0  0  0  0  0
   -5.2475   -0.2537  -22.4275 H   0  0  0  0  0  0  0  0  0  0  0  0
   -3.3711    1.2765  -22.6502 H   0  0  0  0  0  0  0  0  0  0  0  0
   -2.3719    2.3386  -20.6685 H   0  0  0  0  0  0  0  0  0  0  0  0
   -3.2054    1.8253  -18.4364 H   0  0  0  0  0  0  0  0  0  0  0  0
   -4.8155    0.5675  -16.9725 H   0  0  0  0  0  0  0  0  0  0  0  0
   -7.7604   -1.8355  -18.6008 H   0  0  0  0  0  0  0  0  0  0  0  0
   -7.8023   -3.4626  -23.6388 H   0  0  0  0  0  0  0  0  0  0  0  0
   -8.9389   -3.6428  -22.2588 H   0  0  0  0  0  0  0  0  0  0  0  0
  -10.7082   -3.1530  -21.7934 H   0  0  0  0  0  0  0  0  0  0  0  0
  -14.0929   -0.9050  -23.1054 H   0  0  0  0  0  0  0  0  0  0  0  0
  -12.6355    0.4589  -24.5463 H   0  0  0  0  0  0  0  0  0  0  0  0
  -10.0180   -0.0928  -25.8792 H   0  0  0  0  0  0  0  0  0  0  0  0
  -10.4031    1.3509  -24.8825 H   0  0  0  0  0  0  0  0  0  0  0  0
   -6.9659   -0.8759  -24.0358 H   0  0  0  0  0  0  0  0  0  0  0  0
   -8.2279   -1.5451  -25.1250 H   0  0  0  0  0  0  0  0  0  0  0  0
   -8.6028    0.8330  -23.5240 H   0  0  0  0  0  0  0  0  0  0  0  0
   -7.0889    0.6875  -25.8560 H   0  0  0  0  0  0  0  0  0  0  0  0
   -8.4798    1.8203  -25.9593 H   0  0  0  0  0  0  0  0  0  0  0  0
   -8.3210    2.2942  -22.9879 H   0  0  0  0  0  0  0  0  0  0  0  0
   -7.2574    3.6601  -21.4635 H   0  0  0  0  0  0  0  0  0  0  0  0
   -5.7173    3.0896  -22.1919 H   0  0  0  0  0  0  0  0  0  0  0  0
   -6.5626    4.5176  -22.8807 H   0  0  0  0  0  0  0  0  0  0  0  0
  1  2  2  0  0  0  0
  2  3  1  0  0  0  0
  2 17  1  0  0  0  0
  3  4  1  0  0  0  0
  3 14  1  0  0  0  0
  4  5  4  0  0  0  0
  4 13  4  0  0  0  0
  5  6  4  0  0  0  0
  5 10  4  0  0  0  0
  6  7  4  0  0  0  0
  6 33  1  0  0  0  0
  7  8  4  0  0  0  0
  7 34  1  0  0  0  0
  8  9  4  0  0  0  0
  8 35  1  0  0  0  0
  9 10  4  0  0  0  0
  9 36  1  0  0  0  0
 10 11  4  0  0  0  0
 11 12  4  0  0  0  0
 11 37  1  0  0  0  0
 12 13  4  0  0  0  0
 13 38  1  0  0  0  0
 14 15  2  0  0  0  0
 14 16  1  0  0  0  0
 16 17  1  0  0  0  0
 16 39  1  0  0  0  0
 16 40  1  0  0  0  0
 17 18  1  0  0  0  0
 17 26  1  0  0  0  0
 18 19  4  0  0  0  0
 18 24  4  0  0  0  0
 19 20  4  0  0  0  0
 19 41  1  0  0  0  0
 20 21  1  0  0  0  0
 20 22  4  0  0  0  0
 22 23  4  0  0  0  0
 22 42  1  0  0  0  0
 23 24  4  0  0  0  0
 23 43  1  0  0  0  0
 24 25  1  0  0  0  0
 25 27  1  0  0  0  0
 25 44  1  0  0  0  0
 25 45  1  0  0  0  0
 26 27  1  0  0  0  0
 26 46  1  0  0  0  0
 26 47  1  0  0  0  0
 27 28  1  0  0  0  0
 27 48  1  0  0  0  0
 28 29  1  0  0  0  0
 28 49  1  0  0  0  0
 28 50  1  0  0  0  0
 29 30  2  0  0  0  0
 29 31  1  0  0  0  0
 31 32  1  0  0  0  0
 31 51  1  0  0  0  0
 32 52  1  0  0  0  0
 32 53  1  0  0  0  0
 32 54  1  0  0  0  0
M  END
$$$$
