
     RDKit          3D

 40 43  0  0  0  0  0  0  0  0999 V2000
    8.1560    2.4113   25.3213 C   0  0  0  0  0  0  0  0  0  0  0  0
    8.9274    1.5745   24.2975 C   0  0  1  0  0  0  0  0  0  0  0  0
   10.4376    1.4309   24.5271 C   0  0  0  0  0  0  0  0  0  0  0  0
   11.0977    0.8154   23.4358 O   0  0  0  0  0  0  0  0  0  0  0  0
   10.6169   -0.4620   23.0916 C   0  0  0  0  0  0  0  0  0  0  0  0
    9.0992   -0.4819   22.9262 C   0  0  2  0  0  0  0  0  0  0  0  0
    8.4087    0.1465   24.1477 C   0  0  0  0  0  0  0  0  0  0  0  0
    8.6112   -1.8105   22.5973 N   0  0  0  0  0  0  0  0  0  0  0  0
    7.5650   -1.7532   21.6953 C   0  0  0  0  0  0  0  0  0  0  0  0
    6.7267   -2.5905   21.4672 O   0  0  0  0  0  0  0  0  0  0  0  0
    7.6416   -0.4826   21.1045 N   0  0  0  0  0  0  0  0  0  0  0  0
    6.8100   -0.0172   20.0514 C   0  0  0  0  0  0  0  0  0  0  0  0
    7.1726   -0.2842   18.7613 C   0  0  0  0  0  0  0  0  0  0  0  0
    6.4870    0.1371   17.6707 N   0  0  0  0  0  0  0  0  0  0  0  0
    5.4290    0.8863   17.8648 C   0  0  0  0  0  0  0  0  0  0  0  0
    4.9669    1.2719   19.1581 C   0  0  0  0  0  0  0  0  0  0  0  0
    3.8632    2.1460   19.3236 C   0  0  0  0  0  0  0  0  0  0  0  0
    3.4405    2.5027   20.5762 C   0  0  0  0  0  0  0  0  0  0  0  0
    4.0820    1.9753   21.7172 C   0  0  0  0  0  0  0  0  0  0  0  0
    5.1620    1.1396   21.5845 C   0  0  0  0  0  0  0  0  0  0  0  0
    5.6537    0.7915   20.2943 C   0  0  0  0  0  0  0  0  0  0  0  0
    8.6503    0.2782   21.6845 C   0  0  0  0  0  0  0  0  0  0  0  0
    9.0456    1.3381   21.2815 O   0  0  0  0  0  0  0  0  0  0  0  0
    8.5657    3.4254   25.3953 H   0  0  0  0  0  0  0  0  0  0  0  0
    7.1121    2.5258   24.9992 H   0  0  0  0  0  0  0  0  0  0  0  0
    8.1499    1.9686   26.3224 H   0  0  0  0  0  0  0  0  0  0  0  0
    8.7971    2.0804   23.3382 H   0  0  0  0  0  0  0  0  0  0  0  0
   10.6231    0.8599   25.4542 H   0  0  0  0  0  0  0  0  0  0  0  0
   10.9348    2.3977   24.6223 H   0  0  0  0  0  0  0  0  0  0  0  0
   10.8697   -1.2332   23.8340 H   0  0  0  0  0  0  0  0  0  0  0  0
   11.0723   -0.7562   22.1414 H   0  0  0  0  0  0  0  0  0  0  0  0
    8.5993   -0.4561   25.0466 H   0  0  0  0  0  0  0  0  0  0  0  0
    7.3229    0.1218   23.9998 H   0  0  0  0  0  0  0  0  0  0  0  0
    8.4993   -2.4789   23.3442 H   0  0  0  0  0  0  0  0  0  0  0  0
    8.0721   -0.8686   18.5806 H   0  0  0  0  0  0  0  0  0  0  0  0
    4.9012    1.2573   16.9824 H   0  0  0  0  0  0  0  0  0  0  0  0
    3.3688    2.5262   18.4365 H   0  0  0  0  0  0  0  0  0  0  0  0
    2.6141    3.1961   20.6998 H   0  0  0  0  0  0  0  0  0  0  0  0
    3.7177    2.2411   22.7062 H   0  0  0  0  0  0  0  0  0  0  0  0
    5.6590    0.7456   22.4648 H   0  0  0  0  0  0  0  0  0  0  0  0
  1  2  1  0
  2  3  1  0
  3  4  1  0
  4  5  1  0
  5  6  1  0
  6  7  1  0
  6  8  1  1
  8  9  1  0
  9 10  2  0
  9 11  1  0
 11 12  1  0
 12 13  2  0
 13 14  1  0
 14 15  2  0
 15 16  1  0
 16 17  2  0
 17 18  1  0
 18 19  2  0
 19 20  1  0
 20 21  2  0
 11 22  1  0
 22 23  2  0
  7  2  1  0
 21 12  1  0
 22  6  1  0
 21 16  1  0
  1 24  1  0
  1 25  1  0
  1 26  1  0
  2 27  1  1
  3 28  1  0
  3 29  1  0
  5 30  1  0
  5 31  1  0
  7 32  1  0
  7 33  1  0
  8 34  1  0
 13 35  1  0
 15 36  1  0
 17 37  1  0
 18 38  1  0
 19 39  1  0
 20 40  1  0
M  END
$$$$
