
     RDKit          3D

 57 62  0  0  0  0  0  0  0  0999 V2000
   -8.4183   -3.8513  -23.7178 C   0  0  0  0  0  0  0  0  0  0  0  0
   -8.5025   -2.8256  -22.5979 C   0  0  1  0  0  0  0  0  0  0  0  0
   -7.2009   -2.5799  -21.8338 C   0  0  0  0  0  0  0  0  0  0  0  0
   -7.4867   -1.3274  -21.1592 N   0  0  0  0  0  0  0  0  0  0  0  0
   -6.6511   -0.8164  -20.1273 C   0  0  0  0  0  0  0  0  0  0  0  0
   -6.8571   -1.2000  -18.8237 C   0  0  0  0  0  0  0  0  0  0  0  0
   -6.0624   -0.8514  -17.7814 N   0  0  0  0  0  0  0  0  0  0  0  0
   -5.0313   -0.0845  -18.0319 C   0  0  0  0  0  0  0  0  0  0  0  0
   -4.7152    0.4123  -19.3275 C   0  0  0  0  0  0  0  0  0  0  0  0
   -3.6358    1.3105  -19.5318 C   0  0  0  0  0  0  0  0  0  0  0  0
   -3.3309    1.7502  -20.7900 C   0  0  0  0  0  0  0  0  0  0  0  0
   -4.0760    1.2950  -21.9005 C   0  0  0  0  0  0  0  0  0  0  0  0
   -5.1405    0.4456  -21.7254 C   0  0  0  0  0  0  0  0  0  0  0  0
   -5.5142    0.0087  -20.4216 C   0  0  0  0  0  0  0  0  0  0  0  0
   -8.4403   -0.5714  -21.8190 C   0  0  0  0  0  0  0  0  0  0  0  0
   -8.7368    0.5628  -21.5172 O   0  0  0  0  0  0  0  0  0  0  0  0
   -9.0208   -1.4229  -22.9870 C   0  0  1  0  0  0  0  0  0  0  0  0
   -8.4471   -0.8836  -24.3320 C   0  0  0  0  0  0  0  0  0  0  0  0
   -8.9104    0.4724  -24.5856 N   0  0  0  0  0  0  0  0  0  0  0  0
   -8.0710    1.4013  -25.3138 C   0  0  0  0  0  0  0  0  0  0  0  0
   -8.0466    1.2170  -26.8052 C   0  0  0  0  0  0  0  0  0  0  0  0
   -8.6066    2.0295  -27.6784 N   0  0  0  0  0  0  0  0  0  0  0  0
   -8.3410    1.5292  -28.8943 N   0  0  0  0  0  0  0  0  0  0  0  0
   -7.6252    0.4667  -28.8033 N   0  0  0  0  0  0  0  0  0  0  0  0
   -7.4109    0.2475  -27.4928 N   0  0  0  0  0  0  0  0  0  0  0  0
   -6.4636   -0.7689  -27.0785 C   0  0  0  0  0  0  0  0  0  0  0  0
  -10.1589    0.9075  -24.2275 C   0  0  0  0  0  0  0  0  0  0  0  0
  -10.5310    2.0619  -24.3989 O   0  0  0  0  0  0  0  0  0  0  0  0
  -11.0589   -0.1196  -23.6217 C   0  0  0  0  0  0  0  0  0  0  0  0
  -12.4261    0.1469  -23.6132 C   0  0  0  0  0  0  0  0  0  0  0  0
  -13.3137   -0.7951  -23.1382 C   0  0  0  0  0  0  0  0  0  0  0  0
  -12.7964   -2.0036  -22.6864 C   0  0  0  0  0  0  0  0  0  0  0  0
  -13.6548   -2.9254  -22.2148 F   0  0  0  0  0  0  0  0  0  0  0  0
  -11.4436   -2.2905  -22.6859 C   0  0  0  0  0  0  0  0  0  0  0  0
  -10.5340   -1.3089  -23.1037 C   0  0  0  0  0  0  0  0  0  0  0  0
   -8.1408   -4.8354  -23.3216 H   0  0  0  0  0  0  0  0  0  0  0  0
   -9.3881   -3.9352  -24.2233 H   0  0  0  0  0  0  0  0  0  0  0  0
   -7.6697   -3.5559  -24.4637 H   0  0  0  0  0  0  0  0  0  0  0  0
   -9.1953   -3.1851  -21.8296 H   0  0  0  0  0  0  0  0  0  0  0  0
   -6.3357   -2.5032  -22.5152 H   0  0  0  0  0  0  0  0  0  0  0  0
   -6.9900   -3.3673  -21.1048 H   0  0  0  0  0  0  0  0  0  0  0  0
   -7.6999   -1.8419  -18.5723 H   0  0  0  0  0  0  0  0  0  0  0  0
   -4.3880    0.1881  -17.1944 H   0  0  0  0  0  0  0  0  0  0  0  0
   -3.0821    1.6535  -18.6622 H   0  0  0  0  0  0  0  0  0  0  0  0
   -2.5201    2.4569  -20.9413 H   0  0  0  0  0  0  0  0  0  0  0  0
   -3.8084    1.6298  -22.8977 H   0  0  0  0  0  0  0  0  0  0  0  0
   -5.7140    0.1126  -22.5866 H   0  0  0  0  0  0  0  0  0  0  0  0
   -8.7774   -1.5351  -25.1563 H   0  0  0  0  0  0  0  0  0  0  0  0
   -7.3482   -0.8645  -24.3182 H   0  0  0  0  0  0  0  0  0  0  0  0
   -8.4917    2.3920  -25.1280 H   0  0  0  0  0  0  0  0  0  0  0  0
   -7.0437    1.3492  -24.9261 H   0  0  0  0  0  0  0  0  0  0  0  0
   -5.6538   -0.3218  -26.4949 H   0  0  0  0  0  0  0  0  0  0  0  0
   -6.0328   -1.1796  -27.9897 H   0  0  0  0  0  0  0  0  0  0  0  0
   -6.9549   -1.5688  -26.5139 H   0  0  0  0  0  0  0  0  0  0  0  0
  -12.7603    1.0993  -24.0109 H   0  0  0  0  0  0  0  0  0  0  0  0
  -14.3820   -0.6130  -23.1102 H   0  0  0  0  0  0  0  0  0  0  0  0
  -11.1287   -3.2685  -22.3440 H   0  0  0  0  0  0  0  0  0  0  0  0
  1  2  1  0
  2  3  1  0
  3  4  1  0
  4  5  1  0
  5  6  2  0
  6  7  1  0
  7  8  2  0
  8  9  1  0
  9 10  2  0
 10 11  1  0
 11 12  2  0
 12 13  1  0
 13 14  2  0
  4 15  1  0
 15 16  2  0
 15 17  1  0
 17 18  1  6
 18 19  1  0
 19 20  1  0
 20 21  1  0
 21 22  2  0
 22 23  1  0
 23 24  2  0
 24 25  1  0
 25 26  1  0
 19 27  1  0
 27 28  2  0
 27 29  1  0
 29 30  2  0
 30 31  1  0
 31 32  2  0
 32 33  1  0
 32 34  1  0
 34 35  2  0
 17  2  1  0
 25 21  1  0
 35 29  1  0
 14  5  1  0
 35 17  1  0
 14  9  1  0
  1 36  1  0
  1 37  1  0
  1 38  1  0
  2 39  1  1
  3 40  1  0
  3 41  1  0
  6 42  1  0
  8 43  1  0
 10 44  1  0
 11 45  1  0
 12 46  1  0
 13 47  1  0
 18 48  1  0
 18 49  1  0
 20 50  1  0
 20 51  1  0
 26 52  1  0
 26 53  1  0
 26 54  1  0
 30 55  1  0
 31 56  1  0
 34 57  1  0
M  END
