LIG(A-306)
     RDKit          3D

 53 57  0  0  1  0  0  0  0  0999 V2000
    8.8756    6.8298   22.3033 N   0  0  0  0  0  0  0  0  0  0  0  0
    8.0887    6.0407   22.5413 C   0  0  0  0  0  0  0  0  0  0  0  0
    7.1029    4.9975   22.8762 C   0  0  2  0  0  0  0  0  0  0  0  0
    7.0389    4.6715   24.3902 C   0  0  1  0  0  0  0  0  0  0  0  0
    7.5361    3.5246   22.6572 C   0  0  1  0  0  0  0  0  0  0  0  0
    7.6901    3.3576   24.1282 N   0  0  0  0  0  0  0  0  0  0  0  0
    7.7002    2.0445   25.0501 S   0  0  1  0  0  0  0  0  0  0  0  0
    8.1052    2.4736   26.3441 O   0  0  0  0  0  0  0  0  0  0  0  0
    6.4713    1.3494   24.8701 O   0  0  0  0  0  0  0  0  0  0  0  0
    8.8714    1.1227   24.4731 N   0  0  0  0  0  0  0  0  0  0  0  0
   10.2683    1.3249   24.8701 C   0  0  1  0  0  0  0  0  0  0  0  0
    8.5326   -0.2873   24.2000 C   0  0  1  0  0  0  0  0  0  0  0  0
    9.2826   -0.7322   22.9450 C   0  0  2  0  0  0  0  0  0  0  0  0
   10.7656   -0.4180   23.0630 C   0  0  0  0  0  0  0  0  0  0  0  0
   11.2034    0.6000   23.9281 C   0  0  0  0  0  0  0  0  0  0  0  0
   12.5524    0.9512   23.9351 C   0  0  0  0  0  0  0  0  0  0  0  0
   13.4635    0.3044   23.1241 C   0  0  0  0  0  0  0  0  0  0  0  0
   11.6977   -1.0898   22.2690 C   0  0  0  0  0  0  0  0  0  0  0  0
   13.0286   -0.7127   22.3110 C   0  0  0  0  0  0  0  0  0  0  0  0
   14.1757   -1.5305   21.2890 Cl  0  0  0  0  0  0  0  0  0  0  0  0
    8.7175   -0.0072   21.7180 C   0  0  0  0  0  0  0  0  0  0  0  0
    9.2984    0.9429   21.2011 O   0  0  0  0  0  0  0  0  0  0  0  0
    7.5296   -0.4913   21.2640 N   0  0  0  0  0  0  0  0  0  0  0  0
    6.7655   -0.0314   20.1610 C   0  0  0  0  0  0  0  0  0  0  0  0
    5.6044    0.7754   20.3971 C   0  0  0  0  0  0  0  0  0  0  0  0
    5.0764    1.0463   21.6861 C   0  0  0  0  0  0  0  0  0  0  0  0
    3.9643    1.8272   21.8421 C   0  0  0  0  0  0  0  0  0  0  0  0
    3.3252    2.3791   20.7391 C   0  0  0  0  0  0  0  0  0  0  0  0
    3.7922    2.1472   19.4771 C   0  0  0  0  0  0  0  0  0  0  0  0
    4.9354    1.3354   19.2681 C   0  0  0  0  0  0  0  0  0  0  0  0
    5.4464    1.0335   17.9791 C   0  0  0  0  0  0  0  0  0  0  0  0
    6.5105    0.2716   17.7600 N   0  0  0  0  0  0  0  0  0  0  0  0
    7.1386   -0.2373   18.8300 C   0  0  0  0  0  0  0  0  0  0  0  0
    6.1053    5.1973   22.4578 H   0  0  0  0  0  0  0  0  0  0  0  0
    7.6315    5.3494   25.0220 H   0  0  0  0  0  0  0  0  0  0  0  0
    6.0175    4.5955   24.7914 H   0  0  0  0  0  0  0  0  0  0  0  0
    6.7576    2.8882   22.2110 H   0  0  0  0  0  0  0  0  0  0  0  0
    8.4722    3.4104   22.0909 H   0  0  0  0  0  0  0  0  0  0  0  0
   10.4974    2.4006   24.8490 H   0  0  0  0  0  0  0  0  0  0  0  0
   10.4131    0.9391   25.8900 H   0  0  0  0  0  0  0  0  0  0  0  0
    8.8331   -0.9131   25.0533 H   0  0  0  0  0  0  0  0  0  0  0  0
    7.4488   -0.3838   24.0383 H   0  0  0  0  0  0  0  0  0  0  0  0
    9.1520   -1.8164   22.8129 H   0  0  0  0  0  0  0  0  0  0  0  0
   12.8909    1.7433   24.5865 H   0  0  0  0  0  0  0  0  0  0  0  0
   14.5037    0.5945   23.1293 H   0  0  0  0  0  0  0  0  0  0  0  0
   11.3819   -1.8983   21.6264 H   0  0  0  0  0  0  0  0  0  0  0  0
    7.1489   -1.2656   21.7695 H   0  0  0  0  0  0  0  0  0  0  0  0
    5.5600    0.6296   22.5572 H   0  0  0  0  0  0  0  0  0  0  0  0
    3.5791    2.0166   22.8331 H   0  0  0  0  0  0  0  0  0  0  0  0
    2.4510    2.9973   20.8810 H   0  0  0  0  0  0  0  0  0  0  0  0
    3.2860    2.5865   18.6302 H   0  0  0  0  0  0  0  0  0  0  0  0
    4.9372    1.4500   17.1225 H   0  0  0  0  0  0  0  0  0  0  0  0
    8.0039   -0.8574   18.6482 H   0  0  0  0  0  0  0  0  0  0  0  0
  1  2  3  0
  2  3  1  0
  3  4  1  0
  3  5  1  0
  3 34  1  6
  4  6  1  0
  4 35  1  1
  4 36  1  0
  5  6  1  0
  5 37  1  6
  5 38  1  0
  7  6  1  6
  7  8  2  0
  7  9  2  0
  7 10  1  0
 10 11  1  0
 10 12  1  0
 11 15  1  0
 11 39  1  1
 11 40  1  0
 12 13  1  0
 12 41  1  1
 12 42  1  0
 13 14  1  0
 13 21  1  0
 13 43  1  6
 14 15  2  0
 14 18  1  0
 15 16  1  0
 16 17  2  0
 16 44  1  0
 17 19  1  0
 17 45  1  0
 18 19  2  0
 18 46  1  0
 19 20  1  0
 21 22  2  0
 21 23  1  0
 23 24  1  0
 23 47  1  0
 24 25  2  0
 24 33  1  0
 25 26  1  0
 25 30  1  0
 26 27  2  0
 26 48  1  0
 27 28  1  0
 27 49  1  0
 28 29  2  0
 28 50  1  0
 29 30  1  0
 29 51  1  0
 30 31  2  0
 31 32  1  0
 31 52  1  0
 32 33  2  0
 33 53  1  0
M  END
$$$$
