LIG(A-306)
     RDKit          3D

 57 60  0  0  1  0  0  0  0  0999 V2000
   13.9343   -1.2397   21.5060 Cl  0  0  0  0  0  0  0  0  0  0  0  0
   12.6725   -0.5637   22.4884 C   0  0  0  0  0  0  0  0  0  0  0  0
   12.9522    0.3788   23.4779 C   0  0  0  0  0  0  0  0  0  0  0  0
   14.5517    1.0214   23.6901 Cl  0  0  0  0  0  0  0  0  0  0  0  0
   11.9309    0.8673   24.2663 C   0  0  0  0  0  0  0  0  0  0  0  0
   10.6329    0.4473   24.0480 C   0  0  0  0  0  0  0  0  0  0  0  0
   11.3725   -0.9848   22.2692 C   0  0  0  0  0  0  0  0  0  0  0  0
   10.3342   -0.4743   23.0464 C   0  0  0  0  0  0  0  0  0  0  0  0
    8.8893   -0.9219   22.7803 C   0  0  1  0  0  0  0  0  0  0  0  0
    8.8607   -2.4244   22.4786 C   0  0  1  0  0  0  0  0  0  0  0  0
    8.0534   -0.6669   23.9639 N   0  0  0  0  0  0  0  0  0  0  0  0
    7.4527    0.4785   24.3241 C   0  0  0  0  0  0  0  0  0  0  0  0
    7.5705    1.5368   23.7139 O   0  0  0  0  0  0  0  0  0  0  0  0
    6.6297    0.3718   25.5794 C   0  0  1  0  0  0  0  0  0  0  0  0
    7.0661    1.3920   26.6556 C   0  0  1  0  0  0  0  0  0  0  0  0
    5.7876    2.0228   27.1932 C   0  0  1  0  0  0  0  0  0  0  0  0
    5.1709    0.7623   25.3362 C   0  0  1  0  0  0  0  0  0  0  0  0
    4.6906    1.2036   26.6479 N   0  0  2  0  0  0  0  0  0  0  0  0
    3.4129    1.9304   26.5821 C   0  0  1  0  0  0  0  0  0  0  0  0
    8.3508   -0.1391   21.5383 C   0  0  0  0  0  0  0  0  0  0  0  0
    8.9708    0.8019   21.0548 O   0  0  0  0  0  0  0  0  0  0  0  0
    7.1538   -0.5522   21.0690 N   0  0  0  0  0  0  0  0  0  0  0  0
    6.4859   -0.0262   19.9443 C   0  0  0  0  0  0  0  0  0  0  0  0
    5.3978    0.8804   20.1456 C   0  0  0  0  0  0  0  0  0  0  0  0
    4.8687    1.2094   21.4209 C   0  0  0  0  0  0  0  0  0  0  0  0
    3.8128    2.0707   21.5444 C   0  0  0  0  0  0  0  0  0  0  0  0
    3.2347    2.6479   20.4214 C   0  0  0  0  0  0  0  0  0  0  0  0
    3.7066    2.3638   19.1719 C   0  0  0  0  0  0  0  0  0  0  0  0
    4.8007    1.4764   18.9985 C   0  0  0  0  0  0  0  0  0  0  0  0
    5.3248    1.1314   17.7273 C   0  0  0  0  0  0  0  0  0  0  0  0
    6.3287    0.2887   17.5397 N   0  0  0  0  0  0  0  0  0  0  0  0
    6.8787   -0.2687   18.6276 C   0  0  0  0  0  0  0  0  0  0  0  0
   12.1455    1.5764   25.0522 H   0  0  0  0  0  0  0  0  0  0  0  0
    9.8369    0.8396   24.6636 H   0  0  0  0  0  0  0  0  0  0  0  0
   11.1625   -1.7088   21.4959 H   0  0  0  0  0  0  0  0  0  0  0  0
    7.8246   -2.7412   22.2886 H   0  0  0  0  0  0  0  0  0  0  0  0
    9.4761   -2.6318   21.5908 H   0  0  0  0  0  0  0  0  0  0  0  0
    9.2614   -2.9789   23.3401 H   0  0  0  0  0  0  0  0  0  0  0  0
    7.9153   -1.4447   24.5771 H   0  0  0  0  0  0  0  0  0  0  0  0
    6.6841   -0.6480   25.9881 H   0  0  0  0  0  0  0  0  0  0  0  0
    7.6087    0.8823   27.4654 H   0  0  0  0  0  0  0  0  0  0  0  0
    7.7122    2.1625   26.2096 H   0  0  0  0  0  0  0  0  0  0  0  0
    5.7780    1.9968   28.2928 H   0  0  0  0  0  0  0  0  0  0  0  0
    5.6980    3.0641   26.8503 H   0  0  0  0  0  0  0  0  0  0  0  0
    5.1033    1.5784   24.6017 H   0  0  0  0  0  0  0  0  0  0  0  0
    4.5907   -0.1014   24.9792 H   0  0  0  0  0  0  0  0  0  0  0  0
    4.5713    0.4010   27.2323 H   0  0  0  0  0  0  0  0  0  0  0  0
    3.1096    2.2324   27.5954 H   0  0  0  0  0  0  0  0  0  0  0  0
    3.5322    2.8250   25.9532 H   0  0  0  0  0  0  0  0  0  0  0  0
    2.6416    1.2773   26.1480 H   0  0  0  0  0  0  0  0  0  0  0  0
    6.7020   -1.2956   21.5621 H   0  0  0  0  0  0  0  0  0  0  0  0
    5.3062    0.7736   22.3069 H   0  0  0  0  0  0  0  0  0  0  0  0
    3.4249    2.3039   22.5250 H   0  0  0  0  0  0  0  0  0  0  0  0
    2.4038    3.3281   20.5374 H   0  0  0  0  0  0  0  0  0  0  0  0
    3.2436    2.8181   18.3085 H   0  0  0  0  0  0  0  0  0  0  0  0
    4.8762    1.5850   16.8559 H   0  0  0  0  0  0  0  0  0  0  0  0
    7.6921   -0.9621   18.4723 H   0  0  0  0  0  0  0  0  0  0  0  0
  1  2  1  0
  2  3  2  0
  2  7  1  0
  3  4  1  0
  3  5  1  0
  5  6  2  0
  5 33  1  0
  6  8  1  0
  6 34  1  0
  7  8  2  0
  7 35  1  0
  8  9  1  0
  9 10  1  0
  9 11  1  1
  9 20  1  0
 10 36  1  6
 10 37  1  0
 10 38  1  0
 11 12  1  0
 11 39  1  0
 12 13  2  0
 12 14  1  0
 14 15  1  0
 14 17  1  0
 14 40  1  1
 15 16  1  0
 15 41  1  1
 15 42  1  0
 16 18  1  0
 16 43  1  1
 16 44  1  0
 17 18  1  0
 17 45  1  6
 17 46  1  0
 18 19  1  0
 18 47  1  1
 19 48  1  1
 19 49  1  0
 19 50  1  0
 20 21  2  0
 20 22  1  0
 22 23  1  0
 22 51  1  0
 23 24  2  0
 23 32  1  0
 24 25  1  0
 24 29  1  0
 25 26  2  0
 25 52  1  0
 26 27  1  0
 26 53  1  0
 27 28  2  0
 27 54  1  0
 28 29  1  0
 28 55  1  0
 29 30  2  0
 30 31  1  0
 30 56  1  0
 31 32  2  0
 32 57  1  0
M  CHG  1  18   1
M  END
$$$$
