LIG(A-305)
     RDKit          3D

 40 42  0  0  0  0  0  0  0  0999 V2000
    7.1258   -7.4136   30.1990 O   0  0  0  0  0  0  0  0  0  0  0  0
    6.8038   -6.8066   29.1850 C   0  0  0  0  0  0  0  0  0  0  0  0
    7.6886   -6.6178   28.1888 N   0  0  0  0  0  0  0  0  0  0  0  0
    7.4785   -5.9298   27.0108 N   0  0  0  0  0  0  0  0  0  0  0  0
    5.4788   -6.2185   28.9751 C   0  0  0  0  0  0  0  0  0  0  0  0
    5.2117   -5.5205   27.7852 C   0  0  0  0  0  0  0  0  0  0  0  0
    3.9337   -4.9964   27.5713 C   0  0  0  0  0  0  0  0  0  0  0  0
    2.9458   -5.1663   28.5285 C   0  0  0  0  0  0  0  0  0  0  0  0
    3.2159   -5.8452   29.7015 C   0  0  0  0  0  0  0  0  0  0  0  0
    4.4779   -6.3694   29.9333 C   0  0  0  0  0  0  0  0  0  0  0  0
    6.2946   -5.3887   26.7970 C   0  0  0  0  0  0  0  0  0  0  0  0
    6.2504   -4.6347   25.4810 C   0  0  0  0  0  0  0  0  0  0  0  0
    5.3435   -3.8376   25.2311 O   0  0  0  0  0  0  0  0  0  0  0  0
    7.2563   -4.9008   24.6228 N   0  0  0  0  0  0  0  0  0  0  0  0
    7.2872   -4.2299   23.4128 N   0  0  0  0  0  0  0  0  0  0  0  0
    7.8653   -3.0180   23.1857 C   0  0  0  0  0  0  0  0  0  0  0  0
    8.5635   -2.2230   24.2376 C   0  0  1  0  0  0  0  0  0  0  0  0
    6.7210   -4.7499   22.2779 C   0  0  0  0  0  0  0  0  0  0  0  0
    5.9968   -6.0518   22.2371 C   0  0  1  0  0  0  0  0  0  0  0  0
    6.9539   -3.8149   21.2748 C   0  0  0  0  0  0  0  0  0  0  0  0
    7.6701   -2.7330   21.8577 C   0  0  0  0  0  0  0  0  0  0  0  0
    6.5607   -3.8979   19.8599 C   0  0  0  0  0  0  0  0  0  0  0  0
    5.8096   -4.7899   19.4890 O   0  0  0  0  0  0  0  0  0  0  0  0
    7.1247   -2.8780   18.8958 C   0  0  1  0  0  0  0  0  0  0  0  0
    8.5974   -7.0201   28.3203 H   0  0  0  0  0  0  0  0  0  0  0  0
    3.7160   -4.4590   26.6601 H   0  0  0  0  0  0  0  0  0  0  0  0
    1.9579   -4.7652   28.3564 H   0  0  0  0  0  0  0  0  0  0  0  0
    2.4392   -5.9681   30.4418 H   0  0  0  0  0  0  0  0  0  0  0  0
    4.6853   -6.8935   30.8545 H   0  0  0  0  0  0  0  0  0  0  0  0
    7.9639   -5.5680   24.8557 H   0  0  0  0  0  0  0  0  0  0  0  0
    9.4062   -2.8051   24.6390 H   0  0  0  0  0  0  0  0  0  0  0  0
    8.9402   -1.2868   23.7998 H   0  0  0  0  0  0  0  0  0  0  0  0
    7.8588   -1.9906   25.0495 H   0  0  0  0  0  0  0  0  0  0  0  0
    5.1384   -6.0162   22.9240 H   0  0  0  0  0  0  0  0  0  0  0  0
    5.6400   -6.2407   21.2139 H   0  0  0  0  0  0  0  0  0  0  0  0
    6.6778   -6.8597   22.5430 H   0  0  0  0  0  0  0  0  0  0  0  0
    8.0023   -1.8426   21.3446 H   0  0  0  0  0  0  0  0  0  0  0  0
    6.7524   -3.0861   17.8818 H   0  0  0  0  0  0  0  0  0  0  0  0
    6.8089   -1.8700   19.2025 H   0  0  0  0  0  0  0  0  0  0  0  0
    8.2232   -2.9360   18.9020 H   0  0  0  0  0  0  0  0  0  0  0  0
  1  2  2  0
  2  3  1  0
  2  5  1  0
  3  4  1  0
  3 25  1  0
  4 11  2  0
  5  6  2  0
  5 10  1  0
  6  7  1  0
  6 11  1  0
  7  8  2  0
  7 26  1  0
  8  9  1  0
  8 27  1  0
  9 10  2  0
  9 28  1  0
 10 29  1  0
 11 12  1  0
 12 13  2  0
 12 14  1  0
 14 15  1  0
 14 30  1  0
 15 16  1  0
 15 18  1  0
 16 17  1  0
 16 21  2  0
 17 31  1  1
 17 32  1  0
 17 33  1  0
 18 19  1  0
 18 20  2  0
 19 34  1  1
 19 35  1  0
 19 36  1  0
 20 21  1  0
 20 22  1  0
 21 37  1  0
 22 23  2  0
 22 24  1  0
 24 38  1  6
 24 39  1  0
 24 40  1  0
M  END
$$$$
