LIG(A-305)
     RDKit          3D

 34 35  0  0  0  0  0  0  0  0999 V2000
    5.4927   -5.5569   24.3366 N   0  0  0  0  0  0  0  0  0  0  0  0
    2.9447   -1.9830   25.8117 C   0  0  0  0  0  0  0  0  0  0  0  0
    4.0669   -6.7990   25.9117 O   0  0  0  0  0  0  0  0  0  0  0  0
    1.6037   -2.2691   25.7228 C   0  0  0  0  0  0  0  0  0  0  0  0
    6.6454   -4.4689   20.5695 C   0  0  0  0  0  0  0  0  0  0  0  0
    7.9134   -3.6839   20.3634 C   0  0  1  0  0  0  0  0  0  0  0  0
    1.2308   -3.5971   25.6629 C   0  0  0  0  0  0  0  0  0  0  0  0
    2.1888   -4.5990   25.6838 C   0  0  0  0  0  0  0  0  0  0  0  0
    3.5328   -4.2690   25.7687 C   0  0  0  0  0  0  0  0  0  0  0  0
    3.9288   -2.9450   25.8347 C   0  0  0  0  0  0  0  0  0  0  0  0
    6.5317   -4.5399   24.1085 C   0  0  1  0  0  0  0  0  0  0  0  0
    7.3626   -4.9299   22.9144 C   0  0  1  0  0  0  0  0  0  0  0  0
    5.4836   -6.1450   21.9876 C   0  0  1  0  0  0  0  0  0  0  0  0
    4.6297   -5.7370   23.1577 C   0  0  2  0  0  0  0  0  0  0  0  0
    3.3247   -0.6880   25.8717 F   0  0  0  0  0  0  0  0  0  0  0  0
    6.5085   -5.1319   21.7425 N   0  0  0  0  0  0  0  0  0  0  0  0
    5.7459   -5.1929   26.7596 O   0  0  0  0  0  0  0  0  0  0  0  0
    5.7954   -4.5020   19.6895 O   0  0  0  0  0  0  0  0  0  0  0  0
    4.7519   -5.5489   25.7976 S   0  0  2  0  0  0  0  0  0  0  0  0
    0.8656   -1.4810   25.7006 H   0  0  0  0  0  0  0  0  0  0  0  0
    7.8957   -3.2121   19.3699 H   0  0  0  0  0  0  0  0  0  0  0  0
    7.9928   -2.9061   21.1372 H   0  0  0  0  0  0  0  0  0  0  0  0
    8.7784   -4.3599   20.4328 H   0  0  0  0  0  0  0  0  0  0  0  0
    0.1846   -3.8574   25.5992 H   0  0  0  0  0  0  0  0  0  0  0  0
    1.8886   -5.6353   25.6341 H   0  0  0  0  0  0  0  0  0  0  0  0
    4.9725   -2.6759   25.9018 H   0  0  0  0  0  0  0  0  0  0  0  0
    6.0563   -3.5656   23.9219 H   0  0  0  0  0  0  0  0  0  0  0  0
    7.1768   -4.4691   24.9967 H   0  0  0  0  0  0  0  0  0  0  0  0
    8.0879   -4.1309   22.7010 H   0  0  0  0  0  0  0  0  0  0  0  0
    7.9004   -5.8635   23.1363 H   0  0  0  0  0  0  0  0  0  0  0  0
    5.9678   -7.1078   22.2076 H   0  0  0  0  0  0  0  0  0  0  0  0
    4.8515   -6.2482   21.0932 H   0  0  0  0  0  0  0  0  0  0  0  0
    4.1157   -4.7919   22.9282 H   0  0  0  0  0  0  0  0  0  0  0  0
    3.8841   -6.5196   23.3616 H   0  0  0  0  0  0  0  0  0  0  0  0
  1 11  1  0
  1 14  1  0
 19  1  1  6
  2  4  2  0
  2 10  1  0
  2 15  1  0
  3 19  2  0
  4  7  1  0
  4 20  1  0
  5  6  1  0
  5 16  1  0
  5 18  2  0
  6 21  1  6
  6 22  1  0
  6 23  1  0
  7  8  2  0
  7 24  1  0
  8  9  1  0
  8 25  1  0
  9 10  2  0
  9 19  1  0
 10 26  1  0
 11 12  1  0
 11 27  1  6
 11 28  1  0
 12 16  1  0
 12 29  1  6
 12 30  1  0
 13 14  1  0
 13 16  1  0
 13 31  1  1
 13 32  1  0
 14 33  1  6
 14 34  1  0
 17 19  2  0
M  END
$$$$
