LIG(A-306)
     RDKit          3D

 43 46  0  0  1  0  0  0  0  0999 V2000
    2.5339    2.8692   20.9844 F   0  0  0  0  0  0  0  0  0  0  0  0
    3.7025    2.1891   20.8342 C   0  0  0  0  0  0  0  0  0  0  0  0
    4.1185    1.8869   19.5788 C   0  0  0  0  0  0  0  0  0  0  0  0
    4.3909    1.8302   21.9681 C   0  0  0  0  0  0  0  0  0  0  0  0
    5.5585    1.1403   21.8489 C   0  0  0  0  0  0  0  0  0  0  0  0
    6.0647    0.7732   20.5768 C   0  0  0  0  0  0  0  0  0  0  0  0
    5.3163    1.1458   19.4208 C   0  0  0  0  0  0  0  0  0  0  0  0
    5.7996    0.7207   18.1590 C   0  0  0  0  0  0  0  0  0  0  0  0
    6.9003    0.0023   17.9859 N   0  0  0  0  0  0  0  0  0  0  0  0
    7.6067   -0.3237   19.0787 C   0  0  0  0  0  0  0  0  0  0  0  0
    7.2715    0.0250   20.3879 C   0  0  0  0  0  0  0  0  0  0  0  0
    8.0559   -0.2947   21.5227 N   0  0  0  0  0  0  0  0  0  0  0  0
    9.1874    0.3021   21.9872 C   0  0  0  0  0  0  0  0  0  0  0  0
    9.7153    1.2889   21.4905 O   0  0  0  0  0  0  0  0  0  0  0  0
    9.8405   -0.3832   23.2438 C   0  0  1  0  0  0  0  0  0  0  0  0
    9.4627   -1.7481   23.0423 O   0  0  0  0  0  0  0  0  0  0  0  0
    9.9005   -2.6933   24.0241 C   0  0  1  0  0  0  0  0  0  0  0  0
   11.3493   -0.2606   23.2926 C   0  0  0  0  0  0  0  0  0  0  0  0
   12.1168   -0.8248   22.2786 C   0  0  0  0  0  0  0  0  0  0  0  0
   13.4350   -0.4386   22.1292 C   0  0  0  0  0  0  0  0  0  0  0  0
   14.3941   -1.1995   20.8902 Cl  0  0  0  0  0  0  0  0  0  0  0  0
   14.0186    0.5068   22.9527 C   0  0  0  0  0  0  0  0  0  0  0  0
   13.2781    1.0562   23.9848 C   0  0  0  0  0  0  0  0  0  0  0  0
   11.9539    0.6750   24.1462 C   0  0  0  0  0  0  0  0  0  0  0  0
   11.2792    1.2755   25.1801 O   0  0  0  0  0  0  0  0  0  0  0  0
    9.8768    1.5110   24.9065 C   0  0  1  0  0  0  0  0  0  0  0  0
    9.1597    0.2453   24.4725 C   0  0  2  0  0  0  0  0  0  0  0  0
    3.5490    2.2044   18.7178 H   0  0  0  0  0  0  0  0  0  0  0  0
    4.0096    2.0929   22.9438 H   0  0  0  0  0  0  0  0  0  0  0  0
    6.1080    0.8683   22.7380 H   0  0  0  0  0  0  0  0  0  0  0  0
    5.2351    0.9997   17.2815 H   0  0  0  0  0  0  0  0  0  0  0  0
    8.5069   -0.9024   18.9338 H   0  0  0  0  0  0  0  0  0  0  0  0
    7.7311   -1.0722   22.0613 H   0  0  0  0  0  0  0  0  0  0  0  0
    9.5447   -3.6978   23.7512 H   0  0  0  0  0  0  0  0  0  0  0  0
   10.9996   -2.6933   24.0684 H   0  0  0  0  0  0  0  0  0  0  0  0
    9.4940   -2.4151   25.0076 H   0  0  0  0  0  0  0  0  0  0  0  0
   11.6859   -1.5588   21.6138 H   0  0  0  0  0  0  0  0  0  0  0  0
   15.0417    0.8132   22.7921 H   0  0  0  0  0  0  0  0  0  0  0  0
   13.7259    1.7734   24.6567 H   0  0  0  0  0  0  0  0  0  0  0  0
    9.3970    1.8955   25.8187 H   0  0  0  0  0  0  0  0  0  0  0  0
    9.7925    2.2592   24.1046 H   0  0  0  0  0  0  0  0  0  0  0  0
    9.1748   -0.4782   25.3009 H   0  0  0  0  0  0  0  0  0  0  0  0
    8.1179    0.4913   24.2194 H   0  0  0  0  0  0  0  0  0  0  0  0
  1  2  1  0
  2  3  2  0
  2  4  1  0
  3  7  1  0
  3 28  1  0
  4  5  2  0
  4 29  1  0
  5  6  1  0
  5 30  1  0
  6  7  2  0
  6 11  1  0
  7  8  1  0
  8  9  2  0
  8 31  1  0
  9 10  1  0
 10 11  2  0
 10 32  1  0
 11 12  1  0
 12 13  1  0
 12 33  1  0
 13 14  2  0
 13 15  1  0
 15 16  1  6
 15 18  1  0
 15 27  1  0
 16 17  1  0
 17 34  1  6
 17 35  1  0
 17 36  1  0
 18 19  2  0
 18 24  1  0
 19 20  1  0
 19 37  1  0
 20 21  1  0
 20 22  2  0
 22 23  1  0
 22 38  1  0
 23 24  2  0
 23 39  1  0
 24 25  1  0
 25 26  1  0
 26 27  1  0
 26 40  1  1
 26 41  1  0
 27 42  1  1
 27 43  1  0
M  END
$$$$
