LIG(A-307)
     RDKit          3D

 42 45  0  0  1  0  0  0  0  0999 V2000
   10.6646    1.2711   24.7454 O   0  0  0  0  0  0  0  0  0  0  0  0
    5.2390    1.1337   21.5814 C   0  0  0  0  0  0  0  0  0  0  0  0
    9.3767   -0.6162   22.8816 C   0  0  1  0  0  0  0  0  0  0  0  0
    4.1528    1.9494   21.7327 C   0  0  0  0  0  0  0  0  0  0  0  0
    3.5085    2.4793   20.6258 C   0  0  0  0  0  0  0  0  0  0  0  0
    3.9443    2.1884   19.3647 C   0  0  0  0  0  0  0  0  0  0  0  0
   14.1527   -1.6129   21.0377 Cl  0  0  0  0  0  0  0  0  0  0  0  0
    5.0585    1.3407   19.1625 C   0  0  0  0  0  0  0  0  0  0  0  0
    5.5684    1.0219   17.8794 C   0  0  0  0  0  0  0  0  0  0  0  0
    7.2759   -0.2106   18.7440 C   0  0  0  0  0  0  0  0  0  0  0  0
    9.3560    1.0798   21.1637 O   0  0  0  0  0  0  0  0  0  0  0  0
    6.8951    0.0132   20.0651 C   0  0  0  0  0  0  0  0  0  0  0  0
    8.7903    0.1047   21.6437 C   0  0  0  0  0  0  0  0  0  0  0  0
    9.0501   -2.0513   22.8346 N   0  0  1  0  0  0  0  0  0  0  0  0
    7.6334   -0.4246   21.1809 N   0  0  0  0  0  0  0  0  0  0  0  0
    5.7319    0.8079   20.2923 C   0  0  0  0  0  0  0  0  0  0  0  0
   10.8797   -0.3688   22.9583 C   0  0  0  0  0  0  0  0  0  0  0  0
   11.7477   -1.0775   22.1311 C   0  0  0  0  0  0  0  0  0  0  0  0
   13.0876   -0.7472   22.1129 C   0  0  0  0  0  0  0  0  0  0  0  0
   13.6025    0.2589   22.9059 C   0  0  0  0  0  0  0  0  0  0  0  0
   12.7615    0.9357   23.7690 C   0  0  0  0  0  0  0  0  0  0  0  0
   11.4146    0.6133   23.7983 C   0  0  0  0  0  0  0  0  0  0  0  0
    9.2445    1.3417   24.4727 C   0  0  1  0  0  0  0  0  0  0  0  0
    6.6365    0.2672   17.6681 N   0  0  0  0  0  0  0  0  0  0  0  0
    8.6618   -0.0085   24.1088 C   0  0  2  0  0  0  0  0  0  0  0  0
    5.7288    0.7317   22.4560 H   0  0  0  0  0  0  0  0  0  0  0  0
    3.7933    2.1833   22.7238 H   0  0  0  0  0  0  0  0  0  0  0  0
    2.6551    3.1271   20.7617 H   0  0  0  0  0  0  0  0  0  0  0  0
    3.4327    2.6103   18.5123 H   0  0  0  0  0  0  0  0  0  0  0  0
    5.0528    1.4199   17.0179 H   0  0  0  0  0  0  0  0  0  0  0  0
    8.1540   -0.8160   18.5740 H   0  0  0  0  0  0  0  0  0  0  0  0
    9.7707   -2.5728   23.2917 H   0  0  0  0  0  0  0  0  0  0  0  0
    8.1785   -2.2101   23.2984 H   0  0  0  0  0  0  0  0  0  0  0  0
    8.9791   -2.3459   21.8816 H   0  0  0  0  0  0  0  0  0  0  0  0
    7.2654   -1.2071   21.6834 H   0  0  0  0  0  0  0  0  0  0  0  0
   11.3756   -1.8785   21.5096 H   0  0  0  0  0  0  0  0  0  0  0  0
   14.6505    0.5143   22.8523 H   0  0  0  0  0  0  0  0  0  0  0  0
   13.1509    1.7088   24.4149 H   0  0  0  0  0  0  0  0  0  0  0  0
    8.7304    1.7190   25.3690 H   0  0  0  0  0  0  0  0  0  0  0  0
    9.0791    2.0358   23.6356 H   0  0  0  0  0  0  0  0  0  0  0  0
    8.7763   -0.6905   24.9642 H   0  0  0  0  0  0  0  0  0  0  0  0
    7.5933    0.1131   23.8771 H   0  0  0  0  0  0  0  0  0  0  0  0
  1 22  1  0
  1 23  1  0
  2  4  2  0
  2 16  1  0
  2 26  1  0
  3 13  1  6
  3 14  1  0
  3 17  1  0
  3 25  1  0
  4  5  1  0
  4 27  1  0
  5  6  2  0
  5 28  1  0
  6  8  1  0
  6 29  1  0
  7 19  1  0
  8  9  2  0
  8 16  1  0
  9 24  1  0
  9 30  1  0
 10 12  1  0
 10 24  2  0
 10 31  1  0
 11 13  2  0
 12 15  1  0
 12 16  2  0
 13 15  1  0
 14 32  1  1
 14 33  1  0
 14 34  1  0
 15 35  1  0
 17 18  2  0
 17 22  1  0
 18 19  1  0
 18 36  1  0
 19 20  2  0
 20 21  1  0
 20 37  1  0
 21 22  2  0
 21 38  1  0
 23 25  1  0
 23 39  1  1
 23 40  1  0
 25 41  1  1
 25 42  1  0
M  CHG  1  14   1
M  END
$$$$
