LIG(A-307)
     RDKit          3D

 38 41  0  0  1  0  0  0  0  0999 V2000
   -9.8777    0.8139  -20.9108 O   0  0  0  0  0  0  0  0  0  0  0  0
   -9.2896   -0.1258  -21.4447 C   0  0  0  0  0  0  0  0  0  0  0  0
   -9.8818   -0.8940  -22.6280 C   0  0  1  0  0  0  0  0  0  0  0  0
  -11.3817   -0.6748  -22.6556 C   0  0  0  0  0  0  0  0  0  0  0  0
  -12.2259   -1.3824  -21.8029 C   0  0  0  0  0  0  0  0  0  0  0  0
   -9.2569   -0.4482  -23.9625 C   0  0  1  0  0  0  0  0  0  0  0  0
   -9.7875    0.9059  -24.3494 C   0  0  1  0  0  0  0  0  0  0  0  0
  -11.2317    0.9227  -24.4977 O   0  0  0  0  0  0  0  0  0  0  0  0
  -11.9597    0.2199  -23.5672 C   0  0  0  0  0  0  0  0  0  0  0  0
  -13.3328    0.4125  -23.6161 C   0  0  0  0  0  0  0  0  0  0  0  0
  -14.1540   -0.2943  -22.7545 C   0  0  0  0  0  0  0  0  0  0  0  0
  -13.5890   -1.1847  -21.8639 C   0  0  0  0  0  0  0  0  0  0  0  0
  -14.6197   -2.0644  -20.7673 Cl  0  0  0  0  0  0  0  0  0  0  0  0
   -8.0208   -0.4511  -21.1416 N   0  0  0  0  0  0  0  0  0  0  0  0
   -7.2781   -0.1525  -19.9924 C   0  0  0  0  0  0  0  0  0  0  0  0
   -7.7272   -0.2410  -18.6753 C   0  0  0  0  0  0  0  0  0  0  0  0
   -7.1284    0.2950  -17.6029 N   0  0  0  0  0  0  0  0  0  0  0  0
   -6.0321    0.9989  -17.8110 C   0  0  0  0  0  0  0  0  0  0  0  0
   -5.4731    1.2355  -19.0881 C   0  0  0  0  0  0  0  0  0  0  0  0
   -6.1004    0.6271  -20.2110 C   0  0  0  0  0  0  0  0  0  0  0  0
   -4.3979    2.1200  -19.3456 C   0  0  0  0  0  0  0  0  0  0  0  0
   -3.9595    2.4218  -20.5650 N   0  0  0  0  0  0  0  0  0  0  0  0
   -4.5635    1.8316  -21.6068 C   0  0  0  0  0  0  0  0  0  0  0  0
   -5.5970    0.9491  -21.4963 C   0  0  0  0  0  0  0  0  0  0  0  0
   -9.6814   -1.9664  -22.4881 H   0  0  0  0  0  0  0  0  0  0  0  0
  -11.8130   -2.0854  -21.0946 H   0  0  0  0  0  0  0  0  0  0  0  0
   -8.1637   -0.3940  -23.8533 H   0  0  0  0  0  0  0  0  0  0  0  0
   -9.5114   -1.1771  -24.7460 H   0  0  0  0  0  0  0  0  0  0  0  0
   -9.5056    1.6295  -23.5703 H   0  0  0  0  0  0  0  0  0  0  0  0
   -9.3324    1.2014  -25.3062 H   0  0  0  0  0  0  0  0  0  0  0  0
  -13.7585    1.1100  -24.3224 H   0  0  0  0  0  0  0  0  0  0  0  0
  -15.2241   -0.1507  -22.7789 H   0  0  0  0  0  0  0  0  0  0  0  0
   -7.5376   -0.9829  -21.8371 H   0  0  0  0  0  0  0  0  0  0  0  0
   -8.6404   -0.7914  -18.5038 H   0  0  0  0  0  0  0  0  0  0  0  0
   -5.5304    1.4206  -16.9525 H   0  0  0  0  0  0  0  0  0  0  0  0
   -3.9038    2.5774  -18.5012 H   0  0  0  0  0  0  0  0  0  0  0  0
   -4.2081    2.0710  -22.5982 H   0  0  0  0  0  0  0  0  0  0  0  0
   -6.0277    0.5001  -22.3791 H   0  0  0  0  0  0  0  0  0  0  0  0
  1  2  2  0
  2  3  1  0
  2 14  1  0
  3  4  1  0
  3  6  1  0
  3 25  1  1
  4  5  2  0
  4  9  1  0
  5 12  1  0
  5 26  1  0
  6  7  1  0
  6 27  1  1
  6 28  1  0
  7  8  1  0
  7 29  1  1
  7 30  1  0
  8  9  1  0
  9 10  2  0
 10 11  1  0
 10 31  1  0
 11 12  2  0
 11 32  1  0
 12 13  1  0
 14 15  1  0
 14 33  1  0
 15 16  2  0
 15 20  1  0
 16 17  1  0
 16 34  1  0
 17 18  2  0
 18 19  1  0
 18 35  1  0
 19 20  2  0
 19 21  1  0
 20 24  1  0
 21 22  2  0
 21 36  1  0
 22 23  1  0
 23 24  2  0
 23 37  1  0
 24 38  1  0
M  END
$$$$
