LIG(A-306)
     RDKit          3D

 45 48  0  0  1  0  0  0  0  0999 V2000
   -9.8798    0.6111  -20.9942 O   0  0  0  0  0  0  0  0  0  0  0  0
   -9.3839   -0.4247  -21.4184 C   0  0  0  0  0  0  0  0  0  0  0  0
  -10.0362   -1.1981  -22.5873 C   0  0  1  0  0  0  0  0  0  0  0  0
  -11.5416   -0.9493  -22.5965 C   0  0  0  0  0  0  0  0  0  0  0  0
  -12.3451   -1.6165  -21.6779 C   0  0  0  0  0  0  0  0  0  0  0  0
  -13.7046   -1.3872  -21.6694 C   0  0  0  0  0  0  0  0  0  0  0  0
  -14.6923   -2.2597  -20.5322 Cl  0  0  0  0  0  0  0  0  0  0  0  0
  -14.3035   -0.5096  -22.5516 C   0  0  0  0  0  0  0  0  0  0  0  0
  -13.5261    0.1317  -23.4994 C   0  0  0  0  0  0  0  0  0  0  0  0
  -12.1577   -0.0856  -23.5158 C   0  0  0  0  0  0  0  0  0  0  0  0
  -11.4599    0.6638  -24.4311 O   0  0  0  0  0  0  0  0  0  0  0  0
  -10.0108    0.6609  -24.3129 C   0  0  1  0  0  0  0  0  0  0  0  0
   -9.4386   -0.6829  -23.9172 C   0  0  2  0  0  0  0  0  0  0  0  0
   -9.7818   -2.7211  -22.4658 C   0  0  1  0  0  0  0  0  0  0  0  0
   -8.4153   -3.1444  -22.7750 N   0  0  1  0  0  0  0  0  0  0  0  0
   -8.3524   -0.9795  -20.7706 N   0  0  0  0  0  0  0  0  0  0  0  0
   -7.4052   -0.5220  -19.8542 C   0  0  0  0  0  0  0  0  0  0  0  0
   -6.3724    0.3987  -20.2182 C   0  0  0  0  0  0  0  0  0  0  0  0
   -5.9475    0.6223  -21.5550 C   0  0  0  0  0  0  0  0  0  0  0  0
   -4.8818    1.4346  -21.8295 C   0  0  0  0  0  0  0  0  0  0  0  0
   -4.1830    2.0564  -20.8052 C   0  0  0  0  0  0  0  0  0  0  0  0
   -4.5598    1.8858  -19.5013 C   0  0  0  0  0  0  0  0  0  0  0  0
   -5.6634    1.0604  -19.1728 C   0  0  0  0  0  0  0  0  0  0  0  0
   -6.0704    0.8118  -17.8402 C   0  0  0  0  0  0  0  0  0  0  0  0
   -7.0510   -0.0120  -17.5048 N   0  0  0  0  0  0  0  0  0  0  0  0
   -7.6698   -0.6700  -18.4933 C   0  0  0  0  0  0  0  0  0  0  0  0
  -11.9068   -2.3099  -20.9755 H   0  0  0  0  0  0  0  0  0  0  0  0
  -15.3667   -0.3262  -22.5023 H   0  0  0  0  0  0  0  0  0  0  0  0
  -13.9814    0.7954  -24.2195 H   0  0  0  0  0  0  0  0  0  0  0  0
   -9.5820    0.9493  -25.2839 H   0  0  0  0  0  0  0  0  0  0  0  0
   -9.7224    1.3997  -23.5508 H   0  0  0  0  0  0  0  0  0  0  0  0
   -9.6599   -1.4110  -24.7116 H   0  0  0  0  0  0  0  0  0  0  0  0
   -8.3489   -0.5851  -23.8026 H   0  0  0  0  0  0  0  0  0  0  0  0
  -10.0079   -3.0239  -21.4328 H   0  0  0  0  0  0  0  0  0  0  0  0
  -10.4641   -3.2377  -23.1570 H   0  0  0  0  0  0  0  0  0  0  0  0
   -8.4299   -3.7858  -23.5421 H   0  0  0  0  0  0  0  0  0  0  0  0
   -7.8661   -2.3453  -23.0194 H   0  0  0  0  0  0  0  0  0  0  0  0
   -8.0158   -3.5914  -21.9746 H   0  0  0  0  0  0  0  0  0  0  0  0
   -8.2330   -1.9465  -20.9957 H   0  0  0  0  0  0  0  0  0  0  0  0
   -6.4740    0.1434  -22.3673 H   0  0  0  0  0  0  0  0  0  0  0  0
   -4.5813    1.5936  -22.8546 H   0  0  0  0  0  0  0  0  0  0  0  0
   -3.3335    2.6809  -21.0393 H   0  0  0  0  0  0  0  0  0  0  0  0
   -4.0115    2.3844  -18.7158 H   0  0  0  0  0  0  0  0  0  0  0  0
   -5.5481    1.3264  -17.0471 H   0  0  0  0  0  0  0  0  0  0  0  0
   -8.4386   -1.3747  -18.2128 H   0  0  0  0  0  0  0  0  0  0  0  0
  1  2  2  0
  3  2  1  1
  2 16  1  0
  3  4  1  0
  3 13  1  0
  3 14  1  0
  4  5  2  0
  4 10  1  0
  5  6  1  0
  5 27  1  0
  6  7  1  0
  6  8  2  0
  8  9  1  0
  8 28  1  0
  9 10  2  0
  9 29  1  0
 10 11  1  0
 11 12  1  0
 12 13  1  0
 12 30  1  6
 12 31  1  0
 13 32  1  6
 13 33  1  0
 14 15  1  0
 14 34  1  1
 14 35  1  0
 15 36  1  6
 15 37  1  0
 15 38  1  0
 16 17  1  0
 16 39  1  0
 17 18  2  0
 17 26  1  0
 18 19  1  0
 18 23  1  0
 19 20  2  0
 19 40  1  0
 20 21  1  0
 20 41  1  0
 21 22  2  0
 21 42  1  0
 22 23  1  0
 22 43  1  0
 23 24  2  0
 24 25  1  0
 24 44  1  0
 25 26  2  0
 26 45  1  0
M  CHG  1  15   1
M  END
$$$$
