LIG(A-306)
     RDKit          3D

 49 52  0  0  1  0  0  0  0  0999 V2000
   -9.7347    0.7715  -20.8397 O   0  0  0  0  0  0  0  0  0  0  0  0
   -9.2697   -0.2670  -21.2898 C   0  0  0  0  0  0  0  0  0  0  0  0
   -9.9047   -0.9394  -22.5303 C   0  0  1  0  0  0  0  0  0  0  0  0
  -11.4203   -0.7427  -22.5749 C   0  0  0  0  0  0  0  0  0  0  0  0
  -12.2562   -1.5443  -21.7996 C   0  0  0  0  0  0  0  0  0  0  0  0
  -13.6086   -1.2713  -21.7581 C   0  0  0  0  0  0  0  0  0  0  0  0
  -14.6063   -2.1418  -20.6229 Cl  0  0  0  0  0  0  0  0  0  0  0  0
  -14.1701   -0.2545  -22.5021 C   0  0  0  0  0  0  0  0  0  0  0  0
  -13.3551    0.5343  -23.2923 C   0  0  0  0  0  0  0  0  0  0  0  0
  -11.9918    0.2832  -23.3288 C   0  0  0  0  0  0  0  0  0  0  0  0
  -11.3053    0.9509  -24.3093 O   0  0  0  0  0  0  0  0  0  0  0  0
  -10.0823    0.3215  -24.7419 C   0  0  1  0  0  0  0  0  0  0  0  0
   -9.1720   -0.1084  -23.6124 C   0  0  2  0  0  0  0  0  0  0  0  0
   -9.6133   -2.4629  -22.5938 C   0  0  1  0  0  0  0  0  0  0  0  0
   -8.3260   -2.8215  -23.3035 C   0  0  0  0  0  0  0  0  0  0  0  0
   -7.2259   -2.6018  -22.7980 O   0  0  0  0  0  0  0  0  0  0  0  0
   -8.4618   -3.4242  -24.4794 N   0  0  0  0  0  0  0  0  0  0  0  0
   -7.3228   -3.8983  -25.2443 C   0  0  1  0  0  0  0  0  0  0  0  0
   -8.1293   -0.8104  -20.7939 N   0  0  0  0  0  0  0  0  0  0  0  0
   -7.2959   -0.2868  -19.7831 C   0  0  0  0  0  0  0  0  0  0  0  0
   -6.1466    0.4758  -20.1639 C   0  0  0  0  0  0  0  0  0  0  0  0
   -5.7058    0.6253  -21.5069 C   0  0  0  0  0  0  0  0  0  0  0  0
   -4.6094    1.3848  -21.8066 C   0  0  0  0  0  0  0  0  0  0  0  0
   -3.9007    2.0337  -20.8012 C   0  0  0  0  0  0  0  0  0  0  0  0
   -4.2764    1.9082  -19.4932 C   0  0  0  0  0  0  0  0  0  0  0  0
   -5.4009    1.1196  -19.1376 C   0  0  0  0  0  0  0  0  0  0  0  0
   -5.8238    0.9331  -17.7997 C   0  0  0  0  0  0  0  0  0  0  0  0
   -6.8701    0.2014  -17.4440 N   0  0  0  0  0  0  0  0  0  0  0  0
   -7.5746   -0.3857  -18.4191 C   0  0  0  0  0  0  0  0  0  0  0  0
  -11.8496   -2.3714  -21.2366 H   0  0  0  0  0  0  0  0  0  0  0  0
  -15.2347   -0.0765  -22.4674 H   0  0  0  0  0  0  0  0  0  0  0  0
  -13.7765    1.3392  -23.8763 H   0  0  0  0  0  0  0  0  0  0  0  0
  -10.3430   -0.5690  -25.3327 H   0  0  0  0  0  0  0  0  0  0  0  0
   -9.5332    1.0338  -25.3752 H   0  0  0  0  0  0  0  0  0  0  0  0
   -8.3573   -0.7177  -24.0308 H   0  0  0  0  0  0  0  0  0  0  0  0
   -8.7513    0.7910  -23.1390 H   0  0  0  0  0  0  0  0  0  0  0  0
   -9.5574   -2.8462  -21.5643 H   0  0  0  0  0  0  0  0  0  0  0  0
  -10.4455   -2.9510  -23.1221 H   0  0  0  0  0  0  0  0  0  0  0  0
   -9.3809   -3.5560  -24.8507 H   0  0  0  0  0  0  0  0  0  0  0  0
   -7.6745   -4.3607  -26.1784 H   0  0  0  0  0  0  0  0  0  0  0  0
   -6.6620   -3.0514  -25.4809 H   0  0  0  0  0  0  0  0  0  0  0  0
   -6.7682   -4.6420  -24.6533 H   0  0  0  0  0  0  0  0  0  0  0  0
   -7.8468   -1.6835  -21.1912 H   0  0  0  0  0  0  0  0  0  0  0  0
   -6.2449    0.1318  -22.3020 H   0  0  0  0  0  0  0  0  0  0  0  0
   -4.2904    1.4817  -22.8339 H   0  0  0  0  0  0  0  0  0  0  0  0
   -3.0457    2.6423  -21.0564 H   0  0  0  0  0  0  0  0  0  0  0  0
   -3.7124    2.4138  -18.7235 H   0  0  0  0  0  0  0  0  0  0  0  0
   -5.2574    1.4182  -17.0185 H   0  0  0  0  0  0  0  0  0  0  0  0
   -8.4257   -0.9830  -18.1274 H   0  0  0  0  0  0  0  0  0  0  0  0
  1  2  2  0
  3  2  1  1
  2 19  1  0
  3  4  1  0
  3 13  1  0
  3 14  1  0
  4  5  2  0
  4 10  1  0
  5  6  1  0
  5 30  1  0
  6  7  1  0
  6  8  2  0
  8  9  1  0
  8 31  1  0
  9 10  2  0
  9 32  1  0
 10 11  1  0
 11 12  1  0
 12 13  1  0
 12 33  1  6
 12 34  1  0
 13 35  1  6
 13 36  1  0
 14 15  1  0
 14 37  1  1
 14 38  1  0
 15 16  2  0
 15 17  1  0
 17 18  1  0
 17 39  1  0
 18 40  1  6
 18 41  1  0
 18 42  1  0
 19 20  1  0
 19 43  1  0
 20 21  2  0
 20 29  1  0
 21 22  1  0
 21 26  1  0
 22 23  2  0
 22 44  1  0
 23 24  1  0
 23 45  1  0
 24 25  2  0
 24 46  1  0
 25 26  1  0
 25 47  1  0
 26 27  2  0
 27 28  1  0
 27 48  1  0
 28 29  2  0
 29 49  1  0
M  END
$$$$
