LIG(A-305)
     RDKit          3D

 35 36  0  0  0  0  0  0  0  0999 V2000
    7.0976   -3.4701   21.1354 N   0  0  0  0  0  0  0  0  0  0  0  0
    7.0054   -2.8941   18.7604 C   0  0  1  0  0  0  0  0  0  0  0  0
    5.7515   -4.6281   19.7336 O   0  0  0  0  0  0  0  0  0  0  0  0
    6.5625   -3.7331   19.9215 C   0  0  0  0  0  0  0  0  0  0  0  0
    9.6941   -4.9351   26.5272 C   0  0  0  0  0  0  0  0  0  0  0  0
    9.1920   -3.8461   25.8242 C   0  0  0  0  0  0  0  0  0  0  0  0
    9.9829   -3.2661   24.7702 C   0  0  0  0  0  0  0  0  0  0  0  0
    8.0106   -2.3691   21.4763 C   0  0  1  0  0  0  0  0  0  0  0  0
    7.4537   -1.5381   22.6044 C   0  0  1  0  0  0  0  0  0  0  0  0
    6.1758   -3.4641   23.3795 C   0  0  1  0  0  0  0  0  0  0  0  0
    6.7647   -4.3131   22.2865 C   0  0  1  0  0  0  0  0  0  0  0  0
    7.9431   -3.2971   26.1663 C   0  0  0  0  0  0  0  0  0  0  0  0
    7.2022   -3.8931   27.1834 C   0  0  0  0  0  0  0  0  0  0  0  0
    7.7153   -4.9771   27.8714 C   0  0  0  0  0  0  0  0  0  0  0  0
    8.9492   -5.4921   27.5472 C   0  0  0  0  0  0  0  0  0  0  0  0
    7.1858   -2.4521   23.7224 N   0  0  0  0  0  0  0  0  0  0  0  0
   10.6129   -2.7061   23.9921 N   0  0  0  0  0  0  0  0  0  0  0  0
    8.2250   -0.8591   25.3073 O   0  0  0  0  0  0  0  0  0  0  0  0
    5.9350   -1.7001   25.7246 O   0  0  0  0  0  0  0  0  0  0  0  0
    7.2720   -1.9231   25.2724 S   0  0  2  0  0  0  0  0  0  0  0  0
    6.4969   -3.2345   17.8463 H   0  0  0  0  0  0  0  0  0  0  0  0
    6.7508   -1.8411   18.9510 H   0  0  0  0  0  0  0  0  0  0  0  0
    8.0935   -2.9909   18.6322 H   0  0  0  0  0  0  0  0  0  0  0  0
   10.6621   -5.3434   26.2766 H   0  0  0  0  0  0  0  0  0  0  0  0
    8.9809   -2.7874   21.7822 H   0  0  0  0  0  0  0  0  0  0  0  0
    8.1493   -1.7294   20.5922 H   0  0  0  0  0  0  0  0  0  0  0  0
    8.1855   -0.7750   22.9079 H   0  0  0  0  0  0  0  0  0  0  0  0
    6.5221   -1.0469   22.2870 H   0  0  0  0  0  0  0  0  0  0  0  0
    5.2557   -2.9760   23.0257 H   0  0  0  0  0  0  0  0  0  0  0  0
    5.9472   -4.0841   24.2589 H   0  0  0  0  0  0  0  0  0  0  0  0
    6.0339   -5.0767   21.9819 H   0  0  0  0  0  0  0  0  0  0  0  0
    7.6765   -4.8050   22.6560 H   0  0  0  0  0  0  0  0  0  0  0  0
    6.2251   -3.5080   27.4353 H   0  0  0  0  0  0  0  0  0  0  0  0
    7.1421   -5.4237   28.6704 H   0  0  0  0  0  0  0  0  0  0  0  0
    9.3378   -6.3381   28.0947 H   0  0  0  0  0  0  0  0  0  0  0  0
  1  4  1  0
  1  8  1  0
  1 11  1  0
  2  4  1  0
  2 21  1  6
  2 22  1  0
  2 23  1  0
  3  4  2  0
  5  6  2  0
  5 15  1  0
  5 24  1  0
  6  7  1  0
  6 12  1  0
  7 17  3  0
  8  9  1  0
  8 25  1  1
  8 26  1  0
  9 16  1  0
  9 27  1  1
  9 28  1  0
 10 11  1  0
 10 16  1  0
 10 29  1  6
 10 30  1  0
 11 31  1  6
 11 32  1  0
 12 13  2  0
 12 20  1  0
 13 14  1  0
 13 33  1  0
 14 15  2  0
 14 34  1  0
 15 35  1  0
 20 16  1  6
 18 20  2  0
 19 20  2  0
M  END
$$$$
