LIG(A-305)
     RDKit          3D

 18 18  0  0  0  0  0  0  0  0999 V2000
    7.5289   -3.2018   21.3803 N   0  0  0  0  0  0  0  0  0  0  0  0
    8.5748   -2.6419   19.3412 C   0  0  1  0  0  0  0  0  0  0  0  0
    6.3867   -3.6145   19.4524 O   0  0  0  0  0  0  0  0  0  0  0  0
    7.3738   -3.2137   20.0463 C   0  0  0  0  0  0  0  0  0  0  0  0
    6.5330   -3.3076   22.3744 C   0  0  0  0  0  0  0  0  0  0  0  0
    6.1052   -2.2076   23.1144 C   0  0  0  0  0  0  0  0  0  0  0  0
    5.1363   -2.3965   24.0755 C   0  0  0  0  0  0  0  0  0  0  0  0
    4.6391   -3.6664   24.2635 C   0  0  0  0  0  0  0  0  0  0  0  0
    5.9718   -4.5476   22.6454 C   0  0  0  0  0  0  0  0  0  0  0  0
    5.0459   -4.7284   23.5625 N   0  0  0  0  0  0  0  0  0  0  0  0
    6.4735   -5.9526   21.7703 Cl  0  0  0  0  0  0  0  0  0  0  0  0
    8.4679   -3.1058   21.7105 H   0  0  0  0  0  0  0  0  0  0  0  0
    8.4029   -2.6537   18.2548 H   0  0  0  0  0  0  0  0  0  0  0  0
    8.7375   -1.6065   19.6753 H   0  0  0  0  0  0  0  0  0  0  0  0
    9.4619   -3.2474   19.5786 H   0  0  0  0  0  0  0  0  0  0  0  0
    6.5242   -1.2279   22.9385 H   0  0  0  0  0  0  0  0  0  0  0  0
    4.7755   -1.5681   24.6672 H   0  0  0  0  0  0  0  0  0  0  0  0
    3.8799   -3.8118   25.0178 H   0  0  0  0  0  0  0  0  0  0  0  0
  1  4  1  0
  1  5  1  0
  1 12  1  0
  2  4  1  0
  2 13  1  6
  2 14  1  0
  2 15  1  0
  3  4  2  0
  5  6  2  0
  5  9  1  0
  6  7  1  0
  6 16  1  0
  7  8  2  0
  7 17  1  0
  8 10  1  0
  8 18  1  0
  9 10  2  0
  9 11  1  0
M  END
$$$$
