LIG(A-306)
     RDKit          3D

 40 43  0  0  1  0  0  0  0  0999 V2000
   -9.9550    0.8461  -21.0843 O   0  0  0  0  0  0  0  0  0  0  0  0
   -9.4640   -0.1906  -21.5134 C   0  0  0  0  0  0  0  0  0  0  0  0
  -10.1655   -1.0182  -22.6602 C   0  0  1  0  0  0  0  0  0  0  0  0
  -11.6769   -0.8349  -22.5846 C   0  0  0  0  0  0  0  0  0  0  0  0
  -12.4658   -1.6577  -21.7853 C   0  0  0  0  0  0  0  0  0  0  0  0
  -13.8282   -1.4386  -21.7258 C   0  0  0  0  0  0  0  0  0  0  0  0
  -14.7983   -2.4538  -20.6919 Cl  0  0  0  0  0  0  0  0  0  0  0  0
  -14.4378   -0.4198  -22.4346 C   0  0  0  0  0  0  0  0  0  0  0  0
  -13.6679    0.4010  -23.2379 C   0  0  0  0  0  0  0  0  0  0  0  0
  -12.3025    0.1771  -23.3275 C   0  0  0  0  0  0  0  0  0  0  0  0
  -11.6470    0.9357  -24.2688 O   0  0  0  0  0  0  0  0  0  0  0  0
  -10.2042    0.8504  -24.3030 C   0  0  1  0  0  0  0  0  0  0  0  0
   -9.6892   -0.5497  -24.0393 C   0  0  2  0  0  0  0  0  0  0  0  0
   -9.8366   -2.4023  -22.5512 O   0  0  0  0  0  0  0  0  0  0  0  0
   -8.3206   -0.7160  -21.0236 N   0  0  0  0  0  0  0  0  0  0  0  0
   -7.5401   -0.2333  -19.9610 C   0  0  0  0  0  0  0  0  0  0  0  0
   -6.4374    0.6261  -20.2566 C   0  0  0  0  0  0  0  0  0  0  0  0
   -6.0563    0.9955  -21.5719 C   0  0  0  0  0  0  0  0  0  0  0  0
   -4.9846    1.8137  -21.7886 C   0  0  0  0  0  0  0  0  0  0  0  0
   -4.2411    2.3044  -20.7249 C   0  0  0  0  0  0  0  0  0  0  0  0
   -4.5701    1.9819  -19.4385 C   0  0  0  0  0  0  0  0  0  0  0  0
   -5.6758    1.1366  -19.1679 C   0  0  0  0  0  0  0  0  0  0  0  0
   -6.0699    0.7692  -17.8596 C   0  0  0  0  0  0  0  0  0  0  0  0
   -7.0974   -0.0222  -17.5859 N   0  0  0  0  0  0  0  0  0  0  0  0
   -7.8009   -0.5082  -18.6186 C   0  0  0  0  0  0  0  0  0  0  0  0
  -12.0170   -2.4592  -21.2175 H   0  0  0  0  0  0  0  0  0  0  0  0
  -15.5044   -0.2668  -22.3615 H   0  0  0  0  0  0  0  0  0  0  0  0
  -14.1255    1.2085  -23.7902 H   0  0  0  0  0  0  0  0  0  0  0  0
   -9.8573    1.1704  -25.2966 H   0  0  0  0  0  0  0  0  0  0  0  0
   -9.7946    1.5250  -23.5367 H   0  0  0  0  0  0  0  0  0  0  0  0
  -10.0729   -1.2330  -24.8113 H   0  0  0  0  0  0  0  0  0  0  0  0
   -8.5895   -0.5469  -24.0659 H   0  0  0  0  0  0  0  0  0  0  0  0
   -9.8642   -2.6640  -21.6384 H   0  0  0  0  0  0  0  0  0  0  0  0
   -7.9906   -1.5474  -21.4707 H   0  0  0  0  0  0  0  0  0  0  0  0
   -6.6217    0.6244  -22.4140 H   0  0  0  0  0  0  0  0  0  0  0  0
   -4.7129    2.0817  -22.7988 H   0  0  0  0  0  0  0  0  0  0  0  0
   -3.3944    2.9473  -20.9155 H   0  0  0  0  0  0  0  0  0  0  0  0
   -3.9831    2.3741  -18.6212 H   0  0  0  0  0  0  0  0  0  0  0  0
   -5.4970    1.1585  -17.0310 H   0  0  0  0  0  0  0  0  0  0  0  0
   -8.6315   -1.1611  -18.3944 H   0  0  0  0  0  0  0  0  0  0  0  0
  1  2  2  0
  2  3  1  0
  2 15  1  0
  3  4  1  0
  3 13  1  0
  3 14  1  1
  4  5  2  0
  4 10  1  0
  5  6  1  0
  5 26  1  0
  6  7  1  0
  6  8  2  0
  8  9  1  0
  8 27  1  0
  9 10  2  0
  9 28  1  0
 10 11  1  0
 11 12  1  0
 12 13  1  0
 12 29  1  6
 12 30  1  0
 13 31  1  6
 13 32  1  0
 14 33  1  0
 15 16  1  0
 15 34  1  0
 16 17  2  0
 16 25  1  0
 17 18  1  0
 17 22  1  0
 18 19  2  0
 18 35  1  0
 19 20  1  0
 19 36  1  0
 20 21  2  0
 20 37  1  0
 21 22  1  0
 21 38  1  0
 22 23  2  0
 23 24  1  0
 23 39  1  0
 24 25  2  0
 25 40  1  0
M  END
$$$$
