LIG(A-305)
     RDKit          3D

 28 29  0  0  0  0  0  0  0  0999 V2000
   14.4001   -1.9774   20.5259 N   0  0  0  0  0  0  0  0  0  0  0  0
   13.6912   -1.4974   21.2809 C   0  0  0  0  0  0  0  0  0  0  0  0
   12.7652   -0.9004   22.2100 C   0  0  0  0  0  0  0  0  0  0  0  0
   13.2002   -0.1013   23.2679 C   0  0  0  0  0  0  0  0  0  0  0  0
   12.3673    0.4747   24.1430 N   0  0  0  0  0  0  0  0  0  0  0  0
   11.0533    0.2606   23.9741 C   0  0  0  0  0  0  0  0  0  0  0  0
   11.3972   -1.1074   22.0641 C   0  0  0  0  0  0  0  0  0  0  0  0
   10.5122   -0.5144   22.9591 C   0  0  0  0  0  0  0  0  0  0  0  0
    9.0192   -0.6625   22.7932 C   0  0  1  0  0  0  0  0  0  0  0  0
    8.5611    0.1205   21.5782 C   0  0  0  0  0  0  0  0  0  0  0  0
    9.3231    0.8725   20.9711 O   0  0  0  0  0  0  0  0  0  0  0  0
    7.2551   -0.0206   21.2743 N   0  0  0  0  0  0  0  0  0  0  0  0
    6.6300    0.1923   20.0283 C   0  0  0  0  0  0  0  0  0  0  0  0
    7.2989    0.1373   18.8043 C   0  0  0  0  0  0  0  0  0  0  0  0
    6.7958    0.6273   17.6643 N   0  0  0  0  0  0  0  0  0  0  0  0
    5.5928    1.2102   17.7234 C   0  0  0  0  0  0  0  0  0  0  0  0
    4.8509    1.3122   18.8864 C   0  0  0  0  0  0  0  0  0  0  0  0
    5.3710    0.7763   20.0504 C   0  0  0  0  0  0  0  0  0  0  0  0
   14.2614    0.0603   23.3865 H   0  0  0  0  0  0  0  0  0  0  0  0
   10.3726    0.7220   24.6742 H   0  0  0  0  0  0  0  0  0  0  0  0
   11.0242   -1.7251   21.2604 H   0  0  0  0  0  0  0  0  0  0  0  0
    8.7697   -1.7254   22.6590 H   0  0  0  0  0  0  0  0  0  0  0  0
    8.5115   -0.2770   23.6896 H   0  0  0  0  0  0  0  0  0  0  0  0
    6.6582   -0.3111   22.0222 H   0  0  0  0  0  0  0  0  0  0  0  0
    8.2745   -0.3252   18.7754 H   0  0  0  0  0  0  0  0  0  0  0  0
    5.1793    1.6229   16.8150 H   0  0  0  0  0  0  0  0  0  0  0  0
    3.8871    1.7995   18.8855 H   0  0  0  0  0  0  0  0  0  0  0  0
    4.8028    0.8118   20.9681 H   0  0  0  0  0  0  0  0  0  0  0  0
  1  2  3  0
  2  3  1  0
  3  4  2  0
  3  7  1  0
  4  5  1  0
  4 19  1  0
  5  6  2  0
  6  8  1  0
  6 20  1  0
  7  8  2  0
  7 21  1  0
  8  9  1  0
  9 10  1  0
  9 22  1  6
  9 23  1  0
 10 11  2  0
 10 12  1  0
 12 13  1  0
 12 24  1  0
 13 14  2  0
 13 18  1  0
 14 15  1  0
 14 25  1  0
 15 16  2  0
 16 17  1  0
 16 26  1  0
 17 18  2  0
 17 27  1  0
 18 28  1  0
M  END
$$$$
