LIG(A-305)
     RDKit          3D

 29 30  0  0  0  0  0  0  0  0999 V2000
   22.5234  -22.6499   19.7248 N   0  0  0  0  0  0  0  0  0  0  0  0
   24.9656  -20.0641   19.8368 C   0  0  1  0  0  0  0  0  0  0  0  0
   23.8655  -20.8860   20.1438 O   0  0  0  0  0  0  0  0  0  0  0  0
   23.6144  -21.9440   19.2948 C   0  0  0  0  0  0  0  0  0  0  0  0
   21.4384  -21.8968   14.5118 C   0  0  0  0  0  0  0  0  0  0  0  0
   21.6773  -22.9228   15.4358 C   0  0  0  0  0  0  0  0  0  0  0  0
   22.0633  -23.7758   19.0588 C   0  0  0  0  0  0  0  0  0  0  0  0
   21.3081  -25.9598   18.3088 C   0  0  0  0  0  0  0  0  0  0  0  0
   20.9140  -27.3798   18.2038 C   0  0  1  0  0  0  0  0  0  0  0  0
   21.5533  -23.8228   17.7498 C   0  0  0  0  0  0  0  0  0  0  0  0
   21.3703  -22.7238   16.7928 C   0  0  0  0  0  0  0  0  0  0  0  0
   20.8364  -21.5017   17.2198 C   0  0  0  0  0  0  0  0  0  0  0  0
   20.5975  -20.4797   16.2888 C   0  0  0  0  0  0  0  0  0  0  0  0
   20.8995  -20.6747   14.9338 C   0  0  0  0  0  0  0  0  0  0  0  0
   21.1272  -25.0988   17.3398 N   0  0  0  0  0  0  0  0  0  0  0  0
   24.2804  -22.1850   18.3028 O   0  0  0  0  0  0  0  0  0  0  0  0
   22.0132  -25.3288   19.7838 S   0  0  0  0  0  0  0  0  0  0  0  0
   22.0423  -22.3435   20.5462 H   0  0  0  0  0  0  0  0  0  0  0  0
   25.0494  -19.2664   20.5896 H   0  0  0  0  0  0  0  0  0  0  0  0
   25.8854  -20.6672   19.8380 H   0  0  0  0  0  0  0  0  0  0  0  0
   24.8222  -19.6161   18.8425 H   0  0  0  0  0  0  0  0  0  0  0  0
   21.6711  -22.0491   13.4682 H   0  0  0  0  0  0  0  0  0  0  0  0
   22.0955  -23.8625   15.1066 H   0  0  0  0  0  0  0  0  0  0  0  0
   21.4521  -27.8493   17.3672 H   0  0  0  0  0  0  0  0  0  0  0  0
   21.1657  -27.9002   19.1397 H   0  0  0  0  0  0  0  0  0  0  0  0
   19.8305  -27.4472   18.0267 H   0  0  0  0  0  0  0  0  0  0  0  0
   20.6090  -21.3462   18.2640 H   0  0  0  0  0  0  0  0  0  0  0  0
   20.1796  -19.5396   16.6172 H   0  0  0  0  0  0  0  0  0  0  0  0
   20.7174  -19.8863   14.2185 H   0  0  0  0  0  0  0  0  0  0  0  0
  1  4  1  0
  1  7  1  0
  1 18  1  0
  2  3  1  0
  2 19  1  1
  2 20  1  0
  2 21  1  0
  3  4  1  0
  4 16  2  0
  5  6  2  0
  5 14  1  0
  5 22  1  0
  6 11  1  0
  6 23  1  0
  7 10  2  0
  7 17  1  0
  8  9  1  0
  8 15  2  0
  8 17  1  0
  9 24  1  6
  9 25  1  0
  9 26  1  0
 10 11  1  0
 10 15  1  0
 11 12  2  0
 12 13  1  0
 12 27  1  0
 13 14  2  0
 13 28  1  0
 14 29  1  0
M  END
$$$$
