LIG(A-302)
     RDKit          3D

 27 28  0  0  1  0  0  0  0  0999 V2000
   10.8608   -1.5298   22.9237 N   0  0  0  0  0  0  0  0  0  0  0  0
    9.5258    0.5856   22.2162 C   0  0  0  0  0  0  0  0  0  0  0  0
   11.9845   -1.9027   23.7925 C   0  0  0  0  0  0  0  0  0  0  0  0
   13.2242   -1.3618   23.5309 C   0  0  0  0  0  0  0  0  0  0  0  0
   14.3408   -1.6840   24.3334 C   0  0  0  0  0  0  0  0  0  0  0  0
   14.1977   -2.5452   25.3985 C   0  0  0  0  0  0  0  0  0  0  0  0
   11.8445   -2.7758   24.8757 C   0  0  0  0  0  0  0  0  0  0  0  0
   10.8333   -0.1244   22.3027 C   0  0  0  0  0  0  0  0  0  0  0  0
    9.4119   -1.9975   23.1232 C   0  0  1  0  0  0  0  0  0  0  0  0
    8.3879   -0.2048   21.8301 C   0  0  2  0  0  0  0  0  0  0  0  0
   12.9501   -3.0990   25.6772 C   0  0  0  0  0  0  0  0  0  0  0  0
    8.5868   -1.6517   21.9642 N   0  0  2  0  0  0  0  0  0  0  0  0
    9.3647   -3.3647   23.2810 O   0  0  0  0  0  0  0  0  0  0  0  0
    8.0366    0.0997   20.4578 O   0  0  0  0  0  0  0  0  0  0  0  0
    9.4372    1.6400   22.4325 H   0  0  0  0  0  0  0  0  0  0  0  0
   13.3438   -0.6817   22.7005 H   0  0  0  0  0  0  0  0  0  0  0  0
   15.3069   -1.2551   24.1118 H   0  0  0  0  0  0  0  0  0  0  0  0
   15.0496   -2.7903   26.0155 H   0  0  0  0  0  0  0  0  0  0  0  0
   10.8783   -3.2045   25.0971 H   0  0  0  0  0  0  0  0  0  0  0  0
   11.7389    0.3373   21.9381 H   0  0  0  0  0  0  0  0  0  0  0  0
    9.0087   -1.4952   24.0148 H   0  0  0  0  0  0  0  0  0  0  0  0
    7.5395    0.0791   22.4701 H   0  0  0  0  0  0  0  0  0  0  0  0
   12.8339   -3.7770   26.5099 H   0  0  0  0  0  0  0  0  0  0  0  0
    7.6938   -2.0907   22.0634 H   0  0  0  0  0  0  0  0  0  0  0  0
    9.0355   -1.9920   21.1377 H   0  0  0  0  0  0  0  0  0  0  0  0
    8.8679   -3.5768   24.0625 H   0  0  0  0  0  0  0  0  0  0  0  0
    7.2886    0.6852   20.4443 H   0  0  0  0  0  0  0  0  0  0  0  0
  1  3  1  0
  1  8  1  0
  1  9  1  0
  2  8  2  0
  2 10  1  0
  2 15  1  0
  3  4  2  0
  3  7  1  0
  4  5  1  0
  4 16  1  0
  5  6  2  0
  5 17  1  0
  6 11  1  0
  6 18  1  0
  7 11  2  0
  7 19  1  0
  8 20  1  0
  9 12  1  0
  9 13  1  0
  9 21  1  1
 10 12  1  0
 10 14  1  0
 10 22  1  1
 11 23  1  0
 12 24  1  1
 12 25  1  0
 13 26  1  0
 14 27  1  0
M  CHG  1  12   1
M  END
$$$$
