LIG(A-305)
     RDKit          3D

 31 32  0  0  0  0  0  0  0  0999 V2000
    1.5913    3.7571   25.2365 C   0  0  0  0  0  0  0  0  0  0  0  0
    0.5955    4.4652   25.8955 C   0  0  0  0  0  0  0  0  0  0  0  0
   -0.7126    4.0013   25.9286 C   0  0  0  0  0  0  0  0  0  0  0  0
   -1.0337    2.8133   25.2916 C   0  0  0  0  0  0  0  0  0  0  0  0
   -0.0449    2.1032   24.6226 C   0  0  0  0  0  0  0  0  0  0  0  0
    1.2702    2.5641   24.5945 C   0  0  0  0  0  0  0  0  0  0  0  0
    2.3251    1.7500   23.8465 C   0  0  0  0  0  0  0  0  0  0  0  0
    4.4700    1.6468   22.4653 C   0  0  1  0  0  0  0  0  0  0  0  0
    3.9739    1.5808   21.0194 C   0  0  1  0  0  0  0  0  0  0  0  0
    4.9728    1.1057   19.9603 C   0  0  0  0  0  0  0  0  0  0  0  0
    5.9827    0.1796   20.2233 C   0  0  0  0  0  0  0  0  0  0  0  0
    6.8266   -0.1865   19.1742 C   0  0  0  0  0  0  0  0  0  0  0  0
    5.7387    1.1886   17.7053 C   0  0  0  0  0  0  0  0  0  0  0  0
    4.8598    1.6107   18.6883 C   0  0  0  0  0  0  0  0  0  0  0  0
    2.8754    4.2409   25.2294 F   0  0  0  0  0  0  0  0  0  0  0  0
    3.4641    2.4029   23.2104 N   0  0  0  0  0  0  0  0  0  0  0  0
    6.6896    0.3195   17.9562 N   0  0  0  0  0  0  0  0  0  0  0  0
    2.1919    0.5710   23.7865 O   0  0  0  0  0  0  0  0  0  0  0  0
    0.8426    5.3925   26.3908 H   0  0  0  0  0  0  0  0  0  0  0  0
   -1.4752    4.5629   26.4476 H   0  0  0  0  0  0  0  0  0  0  0  0
   -2.0475    2.4415   25.3152 H   0  0  0  0  0  0  0  0  0  0  0  0
   -0.2982    1.1826   24.1179 H   0  0  0  0  0  0  0  0  0  0  0  0
    4.5692    0.6329   22.8805 H   0  0  0  0  0  0  0  0  0  0  0  0
    5.4425    2.1587   22.5114 H   0  0  0  0  0  0  0  0  0  0  0  0
    3.1139    0.8953   20.9950 H   0  0  0  0  0  0  0  0  0  0  0  0
    3.6454    2.5914   20.7353 H   0  0  0  0  0  0  0  0  0  0  0  0
    6.1075   -0.2415   21.2099 H   0  0  0  0  0  0  0  0  0  0  0  0
    7.6138   -0.9024   19.3595 H   0  0  0  0  0  0  0  0  0  0  0  0
    5.6392    1.5850   16.7056 H   0  0  0  0  0  0  0  0  0  0  0  0
    4.0905    2.3323   18.4563 H   0  0  0  0  0  0  0  0  0  0  0  0
    3.5597    3.3954   23.2860 H   0  0  0  0  0  0  0  0  0  0  0  0
  1  2  2  0
  1  6  1  0
  1 15  1  0
  2  3  1  0
  2 19  1  0
  3  4  2  0
  3 20  1  0
  4  5  1  0
  4 21  1  0
  5  6  2  0
  5 22  1  0
  6  7  1  0
  7 16  1  0
  7 18  2  0
  8  9  1  0
  8 16  1  0
  8 23  1  1
  8 24  1  0
  9 10  1  0
  9 25  1  1
  9 26  1  0
 10 11  2  0
 10 14  1  0
 11 12  1  0
 11 27  1  0
 12 17  2  0
 12 28  1  0
 13 14  2  0
 13 17  1  0
 13 29  1  0
 14 30  1  0
 16 31  1  0
M  END
$$$$
