LIG(A-305)
     RDKit          3D

 39 42  0  0  1  0  0  0  0  0999 V2000
    9.1620    0.9155   21.0792 O   0  0  0  0  0  0  0  0  0  0  0  0
    8.6831   -0.1746   21.3742 C   0  0  0  0  0  0  0  0  0  0  0  0
    9.1693   -0.9785   22.5822 C   0  0  2  0  0  0  0  0  0  0  0  0
    8.3663   -0.5555   23.8223 C   0  0  1  0  0  0  0  0  0  0  0  0
    8.8822    0.7616   24.3442 C   0  0  1  0  0  0  0  0  0  0  0  0
   10.2822    0.6867   24.6981 O   0  0  0  0  0  0  0  0  0  0  0  0
   10.6533   -0.7263   22.7511 C   0  0  0  0  0  0  0  0  0  0  0  0
   11.1122    0.1278   23.7581 C   0  0  0  0  0  0  0  0  0  0  0  0
   12.4592    0.4319   23.8910 C   0  0  0  0  0  0  0  0  0  0  0  0
   13.3762   -0.1320   23.0229 C   0  0  0  0  0  0  0  0  0  0  0  0
   11.5943   -1.3053   21.9031 C   0  0  0  0  0  0  0  0  0  0  0  0
   12.9332   -1.0051   22.0540 C   0  0  0  0  0  0  0  0  0  0  0  0
   14.0942   -1.7731   21.0090 Cl  0  0  0  0  0  0  0  0  0  0  0  0
    7.7111   -0.7697   20.6633 N   0  0  0  0  0  0  0  0  0  0  0  0
    6.7890   -0.2288   19.7584 C   0  0  0  0  0  0  0  0  0  0  0  0
    5.6700    0.5271   20.2314 C   0  0  0  0  0  0  0  0  0  0  0  0
    5.2540    0.5611   21.5904 C   0  0  0  0  0  0  0  0  0  0  0  0
    4.1450    1.2630   21.9695 C   0  0  0  0  0  0  0  0  0  0  0  0
    3.3969    1.9639   21.0345 C   0  0  0  0  0  0  0  0  0  0  0  0
    3.7588    1.9709   19.7185 C   0  0  0  0  0  0  0  0  0  0  0  0
    4.9038    1.2580   19.2814 C   0  0  0  0  0  0  0  0  0  0  0  0
    5.3238    1.2239   17.9294 C   0  0  0  0  0  0  0  0  0  0  0  0
    6.3858    0.5540   17.4974 N   0  0  0  0  0  0  0  0  0  0  0  0
    7.0759   -0.1599   18.3953 C   0  0  0  0  0  0  0  0  0  0  0  0
    9.0011   -2.0491   22.3939 H   0  0  0  0  0  0  0  0  0  0  0  0
    7.3055   -0.4498   23.5511 H   0  0  0  0  0  0  0  0  0  0  0  0
    8.4704   -1.3231   24.6033 H   0  0  0  0  0  0  0  0  0  0  0  0
    8.7519    1.5285   23.5666 H   0  0  0  0  0  0  0  0  0  0  0  0
    8.3037    1.0423   25.2367 H   0  0  0  0  0  0  0  0  0  0  0  0
   12.7898    1.1053   24.6679 H   0  0  0  0  0  0  0  0  0  0  0  0
   14.4259    0.1090   23.1037 H   0  0  0  0  0  0  0  0  0  0  0  0
   11.2769   -1.9879   21.1287 H   0  0  0  0  0  0  0  0  0  0  0  0
    7.6334   -1.7569   20.8025 H   0  0  0  0  0  0  0  0  0  0  0  0
    5.8234    0.0239   22.3345 H   0  0  0  0  0  0  0  0  0  0  0  0
    3.8475    1.2724   23.0077 H   0  0  0  0  0  0  0  0  0  0  0  0
    2.5199    2.5090   21.3510 H   0  0  0  0  0  0  0  0  0  0  0  0
    3.1678    2.5243   19.0038 H   0  0  0  0  0  0  0  0  0  0  0  0
    4.7445    1.7771   17.2049 H   0  0  0  0  0  0  0  0  0  0  0  0
    7.9217   -0.7272   18.0358 H   0  0  0  0  0  0  0  0  0  0  0  0
  1  2  2  0
  2  3  1  0
  2 14  1  0
  3  4  1  0
  3  7  1  0
  3 25  1  6
  4  5  1  0
  4 26  1  6
  4 27  1  0
  5  6  1  0
  5 28  1  6
  5 29  1  0
  6  8  1  0
  7  8  2  0
  7 11  1  0
  8  9  1  0
  9 10  2  0
  9 30  1  0
 10 12  1  0
 10 31  1  0
 11 12  2  0
 11 32  1  0
 12 13  1  0
 14 15  1  0
 14 33  1  0
 15 16  2  0
 15 24  1  0
 16 17  1  0
 16 21  1  0
 17 18  2  0
 17 34  1  0
 18 19  1  0
 18 35  1  0
 19 20  2  0
 19 36  1  0
 20 21  1  0
 20 37  1  0
 21 22  2  0
 22 23  1  0
 22 38  1  0
 23 24  2  0
 24 39  1  0
M  END
$$$$
