LIG(A-305)
     RDKit          3D

 33 34  0  0  0  0  0  0  0  0999 V2000
    6.4773    0.5541   17.5371 N   0  0  0  0  0  0  0  0  0  0  0  0
    7.3754   -0.4697   20.9741 N   0  0  0  0  0  0  0  0  0  0  0  0
    5.5763    0.9571   20.1521 C   0  0  0  0  0  0  0  0  0  0  0  0
   13.2775   -0.1682   23.0970 C   0  0  0  0  0  0  0  0  0  0  0  0
   10.5215   -0.5864   22.8881 C   0  0  0  0  0  0  0  0  0  0  0  0
    4.9322    1.5391   19.0671 C   0  0  0  0  0  0  0  0  0  0  0  0
    8.5284    0.0094   21.4821 C   0  0  0  0  0  0  0  0  0  0  0  0
    6.6864    0.1422   19.8981 C   0  0  0  0  0  0  0  0  0  0  0  0
    7.1233   -0.0488   18.5651 C   0  0  0  0  0  0  0  0  0  0  0  0
   12.4104    0.4258   23.9990 C   0  0  0  0  0  0  0  0  0  0  0  0
   11.3975   -1.2034   22.0021 C   0  0  0  0  0  0  0  0  0  0  0  0
   11.0434    0.2097   23.9000 C   0  0  0  0  0  0  0  0  0  0  0  0
   12.7555   -1.0022   22.1310 C   0  0  0  0  0  0  0  0  0  0  0  0
    5.0833    1.2082   21.5551 C   0  0  1  0  0  0  0  0  0  0  0  0
    8.1824   -0.8107   18.2761 N   0  0  0  0  0  0  0  0  0  0  0  0
    9.1173    0.9844   21.0240 O   0  0  0  0  0  0  0  0  0  0  0  0
    9.0305   -0.7365   22.7031 C   0  0  2  0  0  0  0  0  0  0  0  0
    5.4062    1.3120   17.7981 C   0  0  0  0  0  0  0  0  0  0  0  0
   13.8365   -1.9142   21.1161 Cl  0  0  0  0  0  0  0  0  0  0  0  0
    6.9870   -1.2985   21.3770 H   0  0  0  0  0  0  0  0  0  0  0  0
   14.3400    0.0180   23.1492 H   0  0  0  0  0  0  0  0  0  0  0  0
    4.0656    2.1650   19.2204 H   0  0  0  0  0  0  0  0  0  0  0  0
   12.7997    1.0595   24.7822 H   0  0  0  0  0  0  0  0  0  0  0  0
   11.0157   -1.8377   21.2158 H   0  0  0  0  0  0  0  0  0  0  0  0
   10.3775    0.6655   24.6178 H   0  0  0  0  0  0  0  0  0  0  0  0
    4.2079    1.8735   21.5231 H   0  0  0  0  0  0  0  0  0  0  0  0
    4.8006    0.2525   22.0207 H   0  0  0  0  0  0  0  0  0  0  0  0
    5.8820    1.6814   22.1451 H   0  0  0  0  0  0  0  0  0  0  0  0
    8.5602   -1.1912   19.1203 H   0  0  0  0  0  0  0  0  0  0  0  0
    8.8784   -0.2559   17.8203 H   0  0  0  0  0  0  0  0  0  0  0  0
    8.5211   -0.3412   23.5943 H   0  0  0  0  0  0  0  0  0  0  0  0
    8.7932   -1.8045   22.5886 H   0  0  0  0  0  0  0  0  0  0  0  0
    4.8876    1.7690   16.9683 H   0  0  0  0  0  0  0  0  0  0  0  0
  1  9  1  0
  1 18  2  0
  2  7  1  0
  2  8  1  0
  2 20  1  0
  3  6  2  0
  3  8  1  0
  3 14  1  0
  4 10  2  0
  4 13  1  0
  4 21  1  0
  5 11  1  0
  5 12  2  0
  5 17  1  0
  6 18  1  0
  6 22  1  0
  7 16  2  0
  7 17  1  0
  8  9  2  0
  9 15  1  0
 10 12  1  0
 10 23  1  0
 11 13  2  0
 11 24  1  0
 12 25  1  0
 13 19  1  0
 14 26  1  6
 14 27  1  0
 14 28  1  0
 15 29  1  0
 15 30  1  0
 17 31  1  1
 17 32  1  0
 18 33  1  0
M  END
$$$$
