LIG(A-306)
     RDKit          3D

 37 39  0  0  1  0  0  0  0  0999 V2000
  -14.2260   -2.5698  -21.5602 Cl  0  0  0  0  0  0  0  0  0  0  0  0
  -13.0172   -1.6319  -22.3814 C   0  0  0  0  0  0  0  0  0  0  0  0
  -13.3729   -0.6501  -23.2965 C   0  0  0  0  0  0  0  0  0  0  0  0
  -15.0301   -0.2017  -23.5246 Cl  0  0  0  0  0  0  0  0  0  0  0  0
  -12.3917    0.0522  -23.9700 C   0  0  0  0  0  0  0  0  0  0  0  0
  -11.0593   -0.2092  -23.7115 C   0  0  0  0  0  0  0  0  0  0  0  0
  -11.6833   -1.8791  -22.1152 C   0  0  0  0  0  0  0  0  0  0  0  0
  -10.6873   -1.1679  -22.7781 C   0  0  0  0  0  0  0  0  0  0  0  0
   -9.2216   -1.4939  -22.5183 C   0  0  2  0  0  0  0  0  0  0  0  0
   -8.9962   -3.0176  -22.5500 C   0  0  1  0  0  0  0  0  0  0  0  0
   -8.7365   -0.6240  -21.3475 C   0  0  0  0  0  0  0  0  0  0  0  0
   -9.3130    0.4200  -21.0406 O   0  0  0  0  0  0  0  0  0  0  0  0
   -7.5846   -1.0300  -20.7451 N   0  0  0  0  0  0  0  0  0  0  0  0
   -6.8490   -0.3694  -19.7437 C   0  0  0  0  0  0  0  0  0  0  0  0
   -5.8385    0.5587  -20.1442 C   0  0  0  0  0  0  0  0  0  0  0  0
   -5.4898    0.8127  -21.4973 C   0  0  0  0  0  0  0  0  0  0  0  0
   -4.5407    1.7423  -21.8154 C   0  0  0  0  0  0  0  0  0  0  0  0
   -3.8931    2.4627  -20.8183 C   0  0  0  0  0  0  0  0  0  0  0  0
   -4.1885    2.2486  -19.5031 C   0  0  0  0  0  0  0  0  0  0  0  0
   -5.1692    1.2934  -19.1288 C   0  0  0  0  0  0  0  0  0  0  0  0
   -5.5476    1.0498  -17.7852 C   0  0  0  0  0  0  0  0  0  0  0  0
   -6.4848    0.1857  -17.4176 N   0  0  0  0  0  0  0  0  0  0  0  0
   -7.1072   -0.5007  -18.3819 C   0  0  0  0  0  0  0  0  0  0  0  0
  -12.6652    0.8032  -24.6962 H   0  0  0  0  0  0  0  0  0  0  0  0
  -10.2964    0.3400  -24.2431 H   0  0  0  0  0  0  0  0  0  0  0  0
  -11.4121   -2.6296  -21.3875 H   0  0  0  0  0  0  0  0  0  0  0  0
   -8.6835   -1.1105  -23.3977 H   0  0  0  0  0  0  0  0  0  0  0  0
   -7.9347   -3.2358  -22.3609 H   0  0  0  0  0  0  0  0  0  0  0  0
   -9.6124   -3.4955  -21.7742 H   0  0  0  0  0  0  0  0  0  0  0  0
   -9.2808   -3.4097  -23.5375 H   0  0  0  0  0  0  0  0  0  0  0  0
   -7.2155   -1.9070  -21.0528 H   0  0  0  0  0  0  0  0  0  0  0  0
   -5.9820    0.2631  -22.2860 H   0  0  0  0  0  0  0  0  0  0  0  0
   -4.2911    1.9194  -22.8512 H   0  0  0  0  0  0  0  0  0  0  0  0
   -3.1494    3.1984  -21.0868 H   0  0  0  0  0  0  0  0  0  0  0  0
   -3.6712    2.8113  -18.7401 H   0  0  0  0  0  0  0  0  0  0  0  0
   -5.0398    1.6038  -17.0095 H   0  0  0  0  0  0  0  0  0  0  0  0
   -7.8658   -1.2087  -18.0824 H   0  0  0  0  0  0  0  0  0  0  0  0
  1  2  1  0
  2  3  2  0
  2  7  1  0
  3  4  1  0
  3  5  1  0
  5  6  2  0
  5 24  1  0
  6  8  1  0
  6 25  1  0
  7  8  2  0
  7 26  1  0
  8  9  1  0
  9 10  1  0
  9 11  1  0
  9 27  1  6
 10 28  1  1
 10 29  1  0
 10 30  1  0
 11 12  2  0
 11 13  1  0
 13 14  1  0
 13 31  1  0
 14 15  2  0
 14 23  1  0
 15 16  1  0
 15 20  1  0
 16 17  2  0
 16 32  1  0
 17 18  1  0
 17 33  1  0
 18 19  2  0
 18 34  1  0
 19 20  1  0
 19 35  1  0
 20 21  2  0
 21 22  1  0
 21 36  1  0
 22 23  2  0
 23 37  1  0
M  END
$$$$
