LIG(A-305)
     RDKit          3D

 40 42  0  0  1  0  0  0  0  0999 V2000
    6.6027    0.4732   17.5546 N   0  0  0  0  0  0  0  0  0  0  0  0
   12.0928    4.6590   22.9427 N   0  0  0  0  0  0  0  0  0  0  0  0
    5.7220    0.5645   20.2238 C   0  0  0  0  0  0  0  0  0  0  0  0
   13.6623    0.3358   22.5467 C   0  0  0  0  0  0  0  0  0  0  0  0
   12.8887    2.4129   23.5427 O   0  0  0  0  0  0  0  0  0  0  0  0
   10.9982   -0.5179   22.5741 C   0  0  0  0  0  0  0  0  0  0  0  0
    4.9990    1.1645   19.1968 C   0  0  0  0  0  0  0  0  0  0  0  0
   11.3554    0.6921   23.1600 C   0  0  0  0  0  0  0  0  0  0  0  0
    8.8121   -0.0718   21.4104 C   0  0  0  0  0  0  0  0  0  0  0  0
    6.9129   -0.1007   19.8706 C   0  0  0  0  0  0  0  0  0  0  0  0
    7.2987   -0.1208   18.5306 C   0  0  0  0  0  0  0  0  0  0  0  0
   12.6466    3.3699   22.4937 C   0  0  2  0  0  0  0  0  0  0  0  0
   13.3131   -0.8852   21.9958 C   0  0  0  0  0  0  0  0  0  0  0  0
   11.9921   -1.3061   22.0100 C   0  0  0  0  0  0  0  0  0  0  0  0
   12.6725    1.1239   23.1128 C   0  0  0  0  0  0  0  0  0  0  0  0
   13.9757    4.0997   22.2755 C   0  0  1  0  0  0  0  0  0  0  0  0
    5.2692    0.6906   21.6548 C   0  0  1  0  0  0  0  0  0  0  0  0
    7.7230   -0.6657   20.8806 N   0  0  0  0  0  0  0  0  0  0  0  0
    9.1912    1.0492   21.0863 O   0  0  0  0  0  0  0  0  0  0  0  0
   13.3789    6.5668   22.4604 O   0  0  0  0  0  0  0  0  0  0  0  0
    9.5392   -0.9008   22.4523 C   0  0  2  0  0  0  0  0  0  0  0  0
    5.4708    1.0984   17.9008 C   0  0  0  0  0  0  0  0  0  0  0  0
   13.1718    5.3598   22.5485 C   0  0  0  0  0  0  0  0  0  0  0  0
   11.2315    4.9180   23.3798 H   0  0  0  0  0  0  0  0  0  0  0  0
   14.6895    0.6690   22.5357 H   0  0  0  0  0  0  0  0  0  0  0  0
    4.0741    1.6789   19.4125 H   0  0  0  0  0  0  0  0  0  0  0  0
   10.6069    1.2955   23.6519 H   0  0  0  0  0  0  0  0  0  0  0  0
    8.2066   -0.6430   18.2670 H   0  0  0  0  0  0  0  0  0  0  0  0
   12.2004    2.9658   21.5731 H   0  0  0  0  0  0  0  0  0  0  0  0
   14.0727   -1.5125   21.5532 H   0  0  0  0  0  0  0  0  0  0  0  0
   11.7326   -2.2605   21.5761 H   0  0  0  0  0  0  0  0  0  0  0  0
   14.7603    3.8753   23.0130 H   0  0  0  0  0  0  0  0  0  0  0  0
   14.3928    4.0205   21.2607 H   0  0  0  0  0  0  0  0  0  0  0  0
    4.3491    1.2918   21.6971 H   0  0  0  0  0  0  0  0  0  0  0  0
    5.0724   -0.3103   22.0665 H   0  0  0  0  0  0  0  0  0  0  0  0
    6.0558    1.1822   22.2461 H   0  0  0  0  0  0  0  0  0  0  0  0
    7.4714   -1.5694   21.2270 H   0  0  0  0  0  0  0  0  0  0  0  0
    9.0515   -0.7511   23.4269 H   0  0  0  0  0  0  0  0  0  0  0  0
    9.4741   -1.9616   22.1689 H   0  0  0  0  0  0  0  0  0  0  0  0
    4.8945    1.5777   17.1231 H   0  0  0  0  0  0  0  0  0  0  0  0
  1 11  1  0
  1 22  2  0
  2 12  1  0
  2 23  1  0
  2 24  1  0
  3  7  2  0
  3 10  1  0
  3 17  1  0
  4 13  1  0
  4 15  2  0
  4 25  1  0
  5 12  1  0
  5 15  1  0
  6  8  2  0
  6 14  1  0
  6 21  1  0
  7 22  1  0
  7 26  1  0
  8 15  1  0
  8 27  1  0
  9 18  1  0
  9 19  2  0
  9 21  1  0
 10 11  2  0
 10 18  1  0
 11 28  1  0
 12 16  1  0
 12 29  1  6
 13 14  2  0
 13 30  1  0
 14 31  1  0
 16 23  1  0
 16 32  1  1
 16 33  1  0
 17 34  1  6
 17 35  1  0
 17 36  1  0
 18 37  1  0
 20 23  2  0
 21 38  1  1
 21 39  1  0
 22 40  1  0
M  END
$$$$
