LIG(A-305)
     RDKit          3D

 26 26  0  0  0  0  0  0  0  0999 V2000
    6.3040   -5.2047   24.2960 N   0  0  0  0  0  0  0  0  0  0  0  0
    4.9951   -6.2148   26.0931 C   0  0  1  0  0  0  0  0  0  0  0  0
    7.2861   -5.6448   26.2620 O   0  0  0  0  0  0  0  0  0  0  0  0
    6.2811   -5.6658   25.5610 C   0  0  0  0  0  0  0  0  0  0  0  0
    5.3360   -5.5837   23.2611 C   0  0  1  0  0  0  0  0  0  0  0  0
    6.0349   -6.0166   21.9890 C   0  0  1  0  0  0  0  0  0  0  0  0
    7.9659   -4.6786   22.5910 C   0  0  1  0  0  0  0  0  0  0  0  0
    7.2730   -4.2087   23.8470 C   0  0  2  0  0  0  0  0  0  0  0  0
    7.0038   -4.3336   20.3850 C   0  0  0  0  0  0  0  0  0  0  0  0
    8.3038   -3.6435   20.0820 C   0  0  1  0  0  0  0  0  0  0  0  0
    6.9749   -4.9866   21.5620 N   0  0  0  0  0  0  0  0  0  0  0  0
    6.0608   -4.2985   19.6061 O   0  0  0  0  0  0  0  0  0  0  0  0
    5.1412   -6.5532   27.1295 H   0  0  0  0  0  0  0  0  0  0  0  0
    4.2239   -5.4308   26.0687 H   0  0  0  0  0  0  0  0  0  0  0  0
    4.6743   -7.0641   25.4720 H   0  0  0  0  0  0  0  0  0  0  0  0
    4.7203   -6.4159   23.6332 H   0  0  0  0  0  0  0  0  0  0  0  0
    4.6909   -4.7206   23.0400 H   0  0  0  0  0  0  0  0  0  0  0  0
    6.5804   -6.9538   22.1738 H   0  0  0  0  0  0  0  0  0  0  0  0
    5.2868   -6.1775   21.1988 H   0  0  0  0  0  0  0  0  0  0  0  0
    8.6365   -3.8866   22.2262 H   0  0  0  0  0  0  0  0  0  0  0  0
    8.5527   -5.5818   22.8142 H   0  0  0  0  0  0  0  0  0  0  0  0
    8.0221   -4.0499   24.6367 H   0  0  0  0  0  0  0  0  0  0  0  0
    6.7513   -3.2625   23.6410 H   0  0  0  0  0  0  0  0  0  0  0  0
    8.2360   -3.1462   19.1032 H   0  0  0  0  0  0  0  0  0  0  0  0
    8.5112   -2.8944   20.8603 H   0  0  0  0  0  0  0  0  0  0  0  0
    9.1161   -4.3849   20.0609 H   0  0  0  0  0  0  0  0  0  0  0  0
  1  4  1  0
  1  5  1  0
  1  8  1  0
  2  4  1  0
  2 13  1  1
  2 14  1  0
  2 15  1  0
  3  4  2  0
  5  6  1  0
  5 16  1  1
  5 17  1  0
  6 11  1  0
  6 18  1  1
  6 19  1  0
  7  8  1  0
  7 11  1  0
  7 20  1  6
  7 21  1  0
  8 22  1  1
  8 23  1  0
  9 10  1  0
  9 11  1  0
  9 12  2  0
 10 24  1  6
 10 25  1  0
 10 26  1  0
M  END
$$$$
