LIG(A-306)
     RDKit          3D

 38 40  0  0  1  0  0  0  0  0999 V2000
   -5.8033   -3.4901  -21.1547 O   0  0  0  0  0  0  0  0  0  0  0  0
   -6.0967   -3.0436  -22.2598 C   0  0  0  0  0  0  0  0  0  0  0  0
   -5.4621   -3.4334  -23.3600 N   0  0  0  0  0  0  0  0  0  0  0  0
   -5.9727   -3.3484  -24.7321 C   0  0  1  0  0  0  0  0  0  0  0  0
   -6.8098   -2.0908  -24.8927 C   0  0  1  0  0  0  0  0  0  0  0  0
   -7.1954   -2.0303  -22.4179 C   0  0  1  0  0  0  0  0  0  0  0  0
   -7.8651   -1.9849  -23.7939 C   0  0  2  0  0  0  0  0  0  0  0  0
   -8.8759   -3.0349  -23.9272 N   0  0  0  0  0  0  0  0  0  0  0  0
  -10.0730   -2.8031  -24.4738 C   0  0  0  0  0  0  0  0  0  0  0  0
  -10.4257   -1.6869  -24.8375 O   0  0  0  0  0  0  0  0  0  0  0  0
  -10.9573   -4.0382  -24.6559 C   0  0  2  0  0  0  0  0  0  0  0  0
  -10.6417   -4.6744  -26.0235 C   0  0  1  0  0  0  0  0  0  0  0  0
  -11.8443   -5.4075  -26.5534 C   0  0  1  0  0  0  0  0  0  0  0  0
  -13.0053   -4.5634  -26.6330 O   0  0  0  0  0  0  0  0  0  0  0  0
  -12.4091   -3.6372  -24.4716 C   0  0  0  0  0  0  0  0  0  0  0  0
  -12.8570   -2.9981  -23.3158 C   0  0  0  0  0  0  0  0  0  0  0  0
  -14.1940   -2.6852  -23.1790 C   0  0  0  0  0  0  0  0  0  0  0  0
  -14.7423   -1.9639  -21.6878 Cl  0  0  0  0  0  0  0  0  0  0  0  0
  -13.3482   -3.9405  -25.4624 C   0  0  0  0  0  0  0  0  0  0  0  0
  -14.6872   -3.6116  -25.3196 C   0  0  0  0  0  0  0  0  0  0  0  0
  -15.1111   -2.9705  -24.1678 C   0  0  0  0  0  0  0  0  0  0  0  0
   -4.5484   -3.8221  -23.2410 H   0  0  0  0  0  0  0  0  0  0  0  0
   -5.1272   -3.3166  -25.4351 H   0  0  0  0  0  0  0  0  0  0  0  0
   -6.5942   -4.2306  -24.9457 H   0  0  0  0  0  0  0  0  0  0  0  0
   -6.1501   -1.2120  -24.8423 H   0  0  0  0  0  0  0  0  0  0  0  0
   -7.3119   -2.1167  -25.8710 H   0  0  0  0  0  0  0  0  0  0  0  0
   -7.9717   -2.2547  -21.6717 H   0  0  0  0  0  0  0  0  0  0  0  0
   -6.7696   -1.0362  -22.2166 H   0  0  0  0  0  0  0  0  0  0  0  0
   -8.3590   -1.0072  -23.8948 H   0  0  0  0  0  0  0  0  0  0  0  0
   -8.6638   -3.9553  -23.5987 H   0  0  0  0  0  0  0  0  0  0  0  0
  -10.6968   -4.7658  -23.8730 H   0  0  0  0  0  0  0  0  0  0  0  0
  -10.3577   -3.8837  -26.7337 H   0  0  0  0  0  0  0  0  0  0  0  0
   -9.8073   -5.3820  -25.9097 H   0  0  0  0  0  0  0  0  0  0  0  0
  -11.6126   -5.7866  -27.5597 H   0  0  0  0  0  0  0  0  0  0  0  0
  -12.0663   -6.2528  -25.8853 H   0  0  0  0  0  0  0  0  0  0  0  0
  -12.1593   -2.7486  -22.5300 H   0  0  0  0  0  0  0  0  0  0  0  0
  -15.3937   -3.8534  -26.0999 H   0  0  0  0  0  0  0  0  0  0  0  0
  -16.1487   -2.6970  -24.0455 H   0  0  0  0  0  0  0  0  0  0  0  0
  1  2  2  0
  2  3  1  0
  2  6  1  0
  3  4  1  0
  3 22  1  0
  4  5  1  0
  4 23  1  6
  4 24  1  0
  5  7  1  0
  5 25  1  6
  5 26  1  0
  6  7  1  0
  6 27  1  1
  6 28  1  0
  7  8  1  0
  7 29  1  6
  8  9  1  0
  8 30  1  0
  9 10  2  0
  9 11  1  0
 11 12  1  0
 11 15  1  0
 11 31  1  1
 12 13  1  0
 12 32  1  6
 12 33  1  0
 13 14  1  0
 13 34  1  6
 13 35  1  0
 14 19  1  0
 15 16  2  0
 15 19  1  0
 16 17  1  0
 16 36  1  0
 17 18  1  0
 17 21  2  0
 19 20  2  0
 20 21  1  0
 20 37  1  0
 21 38  1  0
M  END
$$$$
