LIG(A-305)
     RDKit          3D

 13 13  0  0  0  0  0  0  0  0999 V2000
   24.6535   -7.8058    5.1690 C   0  0  2  0  0  0  0  0  0  0  0  0
   24.7944   -7.3028    3.8860 O   0  0  0  0  0  0  0  0  0  0  0  0
   23.5794   -8.9187    5.1831 C   0  0  1  0  0  0  0  0  0  0  0  0
   23.7806   -6.8707    6.0361 C   0  0  1  0  0  0  0  0  0  0  0  0
   21.3715   -7.6086    5.4603 O   0  0  0  0  0  0  0  0  0  0  0  0
   22.3686   -8.4446    7.4672 O   0  0  0  0  0  0  0  0  0  0  0  0
   22.5276   -7.9977    6.1562 S   0  0  1  0  0  0  0  0  0  0  0  0
   25.5862   -8.1058    5.6691 H   0  0  0  0  0  0  0  0  0  0  0  0
   25.5764   -6.7652    3.8403 H   0  0  0  0  0  0  0  0  0  0  0  0
   23.1701   -9.1462    4.1877 H   0  0  0  0  0  0  0  0  0  0  0  0
   23.9180   -9.8494    5.6618 H   0  0  0  0  0  0  0  0  0  0  0  0
   24.2376   -6.6213    7.0051 H   0  0  0  0  0  0  0  0  0  0  0  0
   23.4869   -5.9448    5.5199 H   0  0  0  0  0  0  0  0  0  0  0  0
  1  2  1  0
  1  3  1  0
  1  4  1  0
  1  8  1  1
  2  9  1  0
  7  3  1  6
  3 10  1  6
  3 11  1  0
  4  7  1  0
  4 12  1  1
  4 13  1  0
  5  7  2  0
  6  7  2  0
M  END
$$$$
