LIG(A-302)
     RDKit          3D

 27 27  0  0  0  0  0  0  0  0999 V2000
   -2.9913    5.6613   -1.1793 N   0  0  0  0  0  0  0  0  0  0  0  0
   -2.1148    4.6342   -0.7795 C   0  0  0  0  0  0  0  0  0  0  0  0
   -1.5594    2.4390    0.2374 C   0  0  0  0  0  0  0  0  0  0  0  0
   -1.7198    1.7129    1.3228 C   0  0  0  0  0  0  0  0  0  0  0  0
   -0.7776    0.8631    1.7555 C   0  0  0  0  0  0  0  0  0  0  0  0
    0.3737    0.7843    1.0546 C   0  0  0  0  0  0  0  0  0  0  0  0
   -0.4190    2.3447   -0.3824 C   0  0  0  0  0  0  0  0  0  0  0  0
   -1.5204    7.5140   -0.8456 C   0  0  1  0  0  0  0  0  0  0  0  0
   -2.5153    6.8558   -1.7697 C   0  0  1  0  0  0  0  0  0  0  0  0
   -1.8819    6.3748   -3.0337 C   0  0  1  0  0  0  0  0  0  0  0  0
    0.5670    1.5336   -0.0220 C   0  0  0  0  0  0  0  0  0  0  0  0
   -2.5487    3.3638   -0.1747 N   0  0  0  0  0  0  0  0  0  0  0  0
   -0.9696    4.9003   -0.9683 O   0  0  0  0  0  0  0  0  0  0  0  0
   -3.9749    5.5435   -1.0425 H   0  0  0  0  0  0  0  0  0  0  0  0
   -2.6389    1.8042    1.8824 H   0  0  0  0  0  0  0  0  0  0  0  0
   -0.9346    0.2601    2.6376 H   0  0  0  0  0  0  0  0  0  0  0  0
    1.1472    0.1021    1.3750 H   0  0  0  0  0  0  0  0  0  0  0  0
   -0.2647    2.9695   -1.2497 H   0  0  0  0  0  0  0  0  0  0  0  0
   -1.1508    8.4425   -1.3052 H   0  0  0  0  0  0  0  0  0  0  0  0
   -2.0087    7.7481    0.1119 H   0  0  0  0  0  0  0  0  0  0  0  0
   -0.6763    6.8310   -0.6694 H   0  0  0  0  0  0  0  0  0  0  0  0
   -3.3384    7.5499   -1.9950 H   0  0  0  0  0  0  0  0  0  0  0  0
   -2.6451    5.9046   -3.6711 H   0  0  0  0  0  0  0  0  0  0  0  0
   -1.4336    7.2266   -3.5663 H   0  0  0  0  0  0  0  0  0  0  0  0
   -1.0999    5.6391   -2.7949 H   0  0  0  0  0  0  0  0  0  0  0  0
    1.4890    1.4856   -0.5823 H   0  0  0  0  0  0  0  0  0  0  0  0
   -3.5205    3.1589   -0.0577 H   0  0  0  0  0  0  0  0  0  0  0  0
  1  2  1  0
  1  9  1  0
  1 14  1  0
  2 12  1  0
  2 13  2  0
  3  4  2  0
  3  7  1  0
  3 12  1  0
  4  5  1  0
  4 15  1  0
  5  6  2  0
  5 16  1  0
  6 11  1  0
  6 17  1  0
  7 11  2  0
  7 18  1  0
  8  9  1  0
  8 19  1  6
  8 20  1  0
  8 21  1  0
  9 10  1  0
  9 22  1  6
 10 23  1  6
 10 24  1  0
 10 25  1  0
 11 26  1  0
 12 27  1  0
M  END
$$$$
