LIG(A-306)
     RDKit          3D

 39 42  0  0  1  0  0  0  0  0999 V2000
   14.1516   -1.5250   21.1979 Cl  0  0  0  0  0  0  0  0  0  0  0  0
   13.1355   -0.7022   22.3480 C   0  0  0  0  0  0  0  0  0  0  0  0
   13.7164    0.1389   23.2810 C   0  0  0  0  0  0  0  0  0  0  0  0
   12.8963    0.7918   24.1900 C   0  0  0  0  0  0  0  0  0  0  0  0
   11.5184    0.6235   24.1341 C   0  0  0  0  0  0  0  0  0  0  0  0
   11.7645   -0.8874   22.2851 C   0  0  0  0  0  0  0  0  0  0  0  0
   10.9385   -0.1986   23.1681 C   0  0  0  0  0  0  0  0  0  0  0  0
    9.4185   -0.2829   23.0032 C   0  0  1  0  0  0  0  0  0  0  0  0
    8.7244    0.3130   24.0963 O   0  0  0  0  0  0  0  0  0  0  0  0
    8.9333    0.4420   21.7342 C   0  0  0  0  0  0  0  0  0  0  0  0
    9.3890    1.4761   21.2852 O   0  0  0  0  0  0  0  0  0  0  0  0
    7.8564   -0.2362   21.2443 N   0  0  0  0  0  0  0  0  0  0  0  0
    7.6266   -1.5152   21.9373 C   0  0  1  0  0  0  0  0  0  0  0  0
    8.8957   -1.7120   22.7622 C   0  0  2  0  0  0  0  0  0  0  0  0
    6.9942    0.2287   20.1993 C   0  0  0  0  0  0  0  0  0  0  0  0
    5.8891    1.0825   20.5054 C   0  0  0  0  0  0  0  0  0  0  0  0
    5.5471    1.5034   21.8204 C   0  0  0  0  0  0  0  0  0  0  0  0
    4.4739    2.3222   22.0405 C   0  0  0  0  0  0  0  0  0  0  0  0
    3.6878    2.7641   20.9796 C   0  0  0  0  0  0  0  0  0  0  0  0
    3.9788    2.3931   19.6975 C   0  0  0  0  0  0  0  0  0  0  0  0
    5.0849    1.5483   19.4225 C   0  0  0  0  0  0  0  0  0  0  0  0
    5.4409    1.1424   18.1124 C   0  0  0  0  0  0  0  0  0  0  0  0
    6.4711    0.3536   17.8314 N   0  0  0  0  0  0  0  0  0  0  0  0
    7.2132   -0.0842   18.8613 C   0  0  0  0  0  0  0  0  0  0  0  0
   14.7864    0.2842   23.3010 H   0  0  0  0  0  0  0  0  0  0  0  0
   13.3304    1.4325   24.9433 H   0  0  0  0  0  0  0  0  0  0  0  0
   10.8889    1.1353   24.8469 H   0  0  0  0  0  0  0  0  0  0  0  0
   11.3396   -1.5615   21.5561 H   0  0  0  0  0  0  0  0  0  0  0  0
    8.4413    1.1868   23.8537 H   0  0  0  0  0  0  0  0  0  0  0  0
    6.7414   -1.4558   22.5874 H   0  0  0  0  0  0  0  0  0  0  0  0
    7.4970   -2.3349   21.2153 H   0  0  0  0  0  0  0  0  0  0  0  0
    8.6671   -2.2093   23.7163 H   0  0  0  0  0  0  0  0  0  0  0  0
    9.6338   -2.3081   22.2056 H   0  0  0  0  0  0  0  0  0  0  0  0
    6.1436    1.1715   22.6574 H   0  0  0  0  0  0  0  0  0  0  0  0
    4.2337    2.6292   23.0477 H   0  0  0  0  0  0  0  0  0  0  0  0
    2.8406    3.4056   21.1720 H   0  0  0  0  0  0  0  0  0  0  0  0
    3.3608    2.7464   18.8854 H   0  0  0  0  0  0  0  0  0  0  0  0
    4.8362    1.4970   17.2909 H   0  0  0  0  0  0  0  0  0  0  0  0
    8.0471   -0.7314   18.6328 H   0  0  0  0  0  0  0  0  0  0  0  0
  1  2  1  0
  2  3  2  0
  2  6  1  0
  3  4  1  0
  3 25  1  0
  4  5  2  0
  4 26  1  0
  5  7  1  0
  5 27  1  0
  6  7  2  0
  6 28  1  0
  7  8  1  0
  8  9  1  1
  8 10  1  0
  8 14  1  0
  9 29  1  0
 10 11  2  0
 10 12  1  0
 12 13  1  0
 12 15  1  0
 13 14  1  0
 13 30  1  1
 13 31  1  0
 14 32  1  1
 14 33  1  0
 15 16  2  0
 15 24  1  0
 16 17  1  0
 16 21  1  0
 17 18  2  0
 17 34  1  0
 18 19  1  0
 18 35  1  0
 19 20  2  0
 19 36  1  0
 20 21  1  0
 20 37  1  0
 21 22  2  0
 22 23  1  0
 22 38  1  0
 23 24  2  0
 24 39  1  0
M  END
$$$$
