LIG(A-305)
     RDKit          3D

 43 45  0  0  0  0  0  0  0  0999 V2000
    4.3843   -0.4238   22.5386 F   0  0  0  0  0  0  0  0  0  0  0  0
    4.0013    0.4942   21.6266 C   0  0  0  0  0  0  0  0  0  0  0  0
    2.9993    1.3693   21.9706 C   0  0  0  0  0  0  0  0  0  0  0  0
    2.6013    2.3143   21.0436 C   0  0  0  0  0  0  0  0  0  0  0  0
    3.2192    2.3912   19.8075 C   0  0  0  0  0  0  0  0  0  0  0  0
    4.6372    0.4991   20.3905 C   0  0  0  0  0  0  0  0  0  0  0  0
    4.2412    1.5021   19.4805 C   0  0  0  0  0  0  0  0  0  0  0  0
    4.8921    1.6070   18.2555 N   0  0  0  0  0  0  0  0  0  0  0  0
    5.9140    0.7929   17.8494 C   0  0  0  0  0  0  0  0  0  0  0  0
    6.5209    1.0338   16.8024 O   0  0  0  0  0  0  0  0  0  0  0  0
    6.2650   -0.2561   18.7434 C   0  0  0  0  0  0  0  0  0  0  0  0
    5.6821   -0.4440   19.9585 C   0  0  0  0  0  0  0  0  0  0  0  0
    6.0651   -1.6560   20.7475 C   0  0  0  0  0  0  0  0  0  0  0  0
    5.3320   -2.6439   20.7996 O   0  0  0  0  0  0  0  0  0  0  0  0
    7.2101   -1.5850   21.4284 N   0  0  0  0  0  0  0  0  0  0  0  0
    7.5861   -2.5890   22.4154 C   0  0  1  0  0  0  0  0  0  0  0  0
    9.0551   -2.5501   22.7313 C   0  0  1  0  0  0  0  0  0  0  0  0
    9.4742   -1.1781   22.6562 O   0  0  0  0  0  0  0  0  0  0  0  0
   10.8143   -0.8872   22.7241 C   0  0  0  0  0  0  0  0  0  0  0  0
   11.1254    0.4218   23.1420 C   0  0  0  0  0  0  0  0  0  0  0  0
   10.0454    1.2119   23.4301 O   0  0  0  0  0  0  0  0  0  0  0  0
   10.2735    2.6029   23.6610 C   0  0  1  0  0  0  0  0  0  0  0  0
   11.8312   -1.7533   22.3491 C   0  0  0  0  0  0  0  0  0  0  0  0
   13.1442   -1.3143   22.3660 C   0  0  0  0  0  0  0  0  0  0  0  0
   13.4523   -0.0303   22.7799 C   0  0  0  0  0  0  0  0  0  0  0  0
   12.4504    0.8377   23.1819 C   0  0  0  0  0  0  0  0  0  0  0  0
    2.5332    1.3198   22.9435 H   0  0  0  0  0  0  0  0  0  0  0  0
    1.8015    2.9983   21.2858 H   0  0  0  0  0  0  0  0  0  0  0  0
    2.9089    3.1415   19.0953 H   0  0  0  0  0  0  0  0  0  0  0  0
    4.5925    2.3265   17.6285 H   0  0  0  0  0  0  0  0  0  0  0  0
    7.0401   -0.9442   18.4399 H   0  0  0  0  0  0  0  0  0  0  0  0
    7.8295   -0.8192   21.2561 H   0  0  0  0  0  0  0  0  0  0  0  0
    7.0196   -2.4064   23.3405 H   0  0  0  0  0  0  0  0  0  0  0  0
    7.3343   -3.5848   22.0218 H   0  0  0  0  0  0  0  0  0  0  0  0
    9.2327   -2.9426   23.7434 H   0  0  0  0  0  0  0  0  0  0  0  0
    9.6131   -3.1541   22.0007 H   0  0  0  0  0  0  0  0  0  0  0  0
    9.3170    3.1008   23.8784 H   0  0  0  0  0  0  0  0  0  0  0  0
   10.9534    2.7257   24.5170 H   0  0  0  0  0  0  0  0  0  0  0  0
   10.7262    3.0537   22.7656 H   0  0  0  0  0  0  0  0  0  0  0  0
   11.6000   -2.7637   22.0458 H   0  0  0  0  0  0  0  0  0  0  0  0
   13.9350   -1.9801   22.0532 H   0  0  0  0  0  0  0  0  0  0  0  0
   14.4813    0.2974   22.7896 H   0  0  0  0  0  0  0  0  0  0  0  0
   12.6978    1.8317   23.5243 H   0  0  0  0  0  0  0  0  0  0  0  0
  1  2  1  0
  2  3  2  0
  2  6  1  0
  3  4  1  0
  3 27  1  0
  4  5  2  0
  4 28  1  0
  5  7  1  0
  5 29  1  0
  6  7  2  0
  6 12  1  0
  7  8  1  0
  8  9  1  0
  8 30  1  0
  9 10  2  0
  9 11  1  0
 11 12  2  0
 11 31  1  0
 12 13  1  0
 13 14  2  0
 13 15  1  0
 15 16  1  0
 15 32  1  0
 16 17  1  0
 16 33  1  1
 16 34  1  0
 17 18  1  0
 17 35  1  1
 17 36  1  0
 18 19  1  0
 19 20  2  0
 19 23  1  0
 20 21  1  0
 20 26  1  0
 21 22  1  0
 22 37  1  1
 22 38  1  0
 22 39  1  0
 23 24  2  0
 23 40  1  0
 24 25  1  0
 24 41  1  0
 25 26  2  0
 25 42  1  0
 26 43  1  0
M  END
$$$$
