LIG(A-306)
     RDKit          3D

 55 58  0  0  1  0  0  0  0  0999 V2000
   10.7319    3.1725   24.4188 O   0  0  0  0  0  0  0  0  0  0  0  0
   10.3561    2.0303   24.2232 C   0  0  0  0  0  0  0  0  0  0  0  0
    9.0540    1.6490   24.4224 N   0  0  0  0  0  0  0  0  0  0  0  0
    8.1300    2.5525   25.0803 C   0  0  1  0  0  0  0  0  0  0  0  0
    7.5609    3.7134   24.2798 C   0  0  0  0  0  0  0  0  0  0  0  0
    6.9490    4.6161   24.8418 O   0  0  0  0  0  0  0  0  0  0  0  0
    7.7383    3.6896   22.9626 N   0  0  0  0  0  0  0  0  0  0  0  0
    7.0598    4.6176   22.0756 C   0  0  1  0  0  0  0  0  0  0  0  0
   11.2393    1.0371   23.5994 C   0  0  0  0  0  0  0  0  0  0  0  0
   12.5951    1.3360   23.4560 C   0  0  0  0  0  0  0  0  0  0  0  0
   13.4326    0.4745   22.7750 C   0  0  0  0  0  0  0  0  0  0  0  0
   12.9153   -0.6874   22.2515 C   0  0  0  0  0  0  0  0  0  0  0  0
   13.9783   -1.7838   21.4202 Cl  0  0  0  0  0  0  0  0  0  0  0  0
   11.5734   -1.0027   22.3624 C   0  0  0  0  0  0  0  0  0  0  0  0
   10.7103   -0.1229   23.0186 C   0  0  0  0  0  0  0  0  0  0  0  0
    9.2133   -0.3550   22.9916 C   0  0  1  0  0  0  0  0  0  0  0  0
    8.5749    0.2776   24.2282 C   0  0  2  0  0  0  0  0  0  0  0  0
    8.6366    0.3233   21.7444 C   0  0  0  0  0  0  0  0  0  0  0  0
    9.0371    1.4217   21.3523 O   0  0  0  0  0  0  0  0  0  0  0  0
    7.6238   -0.3511   21.1423 N   0  0  0  0  0  0  0  0  0  0  0  0
    6.8494    0.0510   20.0240 C   0  0  0  0  0  0  0  0  0  0  0  0
    5.7077    0.8800   20.2568 C   0  0  0  0  0  0  0  0  0  0  0  0
    5.0005    1.3865   19.1262 C   0  0  0  0  0  0  0  0  0  0  0  0
    5.4528    0.9987   17.8399 C   0  0  0  0  0  0  0  0  0  0  0  0
    6.4910    0.2012   17.6243 N   0  0  0  0  0  0  0  0  0  0  0  0
    7.1615   -0.2473   18.6969 C   0  0  0  0  0  0  0  0  0  0  0  0
    5.2325    1.2141   21.5494 C   0  0  0  0  0  0  0  0  0  0  0  0
    4.1338    2.0040   21.7196 C   0  0  0  0  0  0  0  0  0  0  0  0
    3.4722    2.5159   20.6133 C   0  0  0  0  0  0  0  0  0  0  0  0
    3.8777    2.2236   19.3359 C   0  0  0  0  0  0  0  0  0  0  0  0
    2.1520    3.6667   20.8503 S   0  0  1  0  0  0  0  0  0  0  0  0
    2.7189    4.9158   21.2748 O   0  0  0  0  0  0  0  0  0  0  0  0
    1.3365    3.6679   19.6678 O   0  0  0  0  0  0  0  0  0  0  0  0
    1.2183    3.0050   22.1735 C   0  0  1  0  0  0  0  0  0  0  0  0
    7.2787    1.9498   25.4294 H   0  0  0  0  0  0  0  0  0  0  0  0
    8.6555    2.9813   25.9464 H   0  0  0  0  0  0  0  0  0  0  0  0
    8.3589    3.0109   22.5700 H   0  0  0  0  0  0  0  0  0  0  0  0
    7.3557    4.4144   21.0358 H   0  0  0  0  0  0  0  0  0  0  0  0
    5.9717    4.4934   22.1780 H   0  0  0  0  0  0  0  0  0  0  0  0
    7.3378    5.6482   22.3411 H   0  0  0  0  0  0  0  0  0  0  0  0
   12.9916    2.2466   23.8802 H   0  0  0  0  0  0  0  0  0  0  0  0
   14.4798    0.7101   22.6552 H   0  0  0  0  0  0  0  0  0  0  0  0
   11.1953   -1.9238   21.9441 H   0  0  0  0  0  0  0  0  0  0  0  0
    8.9968   -1.4331   22.9665 H   0  0  0  0  0  0  0  0  0  0  0  0
    7.4824    0.2927   24.1014 H   0  0  0  0  0  0  0  0  0  0  0  0
    8.8330   -0.3224   25.1133 H   0  0  0  0  0  0  0  0  0  0  0  0
    7.3955   -1.2416   21.5359 H   0  0  0  0  0  0  0  0  0  0  0  0
    4.9182    1.3764   16.9808 H   0  0  0  0  0  0  0  0  0  0  0  0
    8.0105   -0.8904   18.5187 H   0  0  0  0  0  0  0  0  0  0  0  0
    5.7510    0.8353   22.4177 H   0  0  0  0  0  0  0  0  0  0  0  0
    3.7795    2.2306   22.7143 H   0  0  0  0  0  0  0  0  0  0  0  0
    3.3416    2.6312   18.4916 H   0  0  0  0  0  0  0  0  0  0  0  0
    0.3668    3.6671   22.3891 H   0  0  0  0  0  0  0  0  0  0  0  0
    0.8462    2.0075   21.8967 H   0  0  0  0  0  0  0  0  0  0  0  0
    1.8549    2.9239   23.0668 H   0  0  0  0  0  0  0  0  0  0  0  0
  1  2  2  0
  2  3  1  0
  2  9  1  0
  3  4  1  0
  3 17  1  0
  4  5  1  0
  4 35  1  1
  4 36  1  0
  5  6  2  0
  5  7  1  0
  7  8  1  0
  7 37  1  0
  8 38  1  6
  8 39  1  0
  8 40  1  0
  9 10  2  0
  9 15  1  0
 10 11  1  0
 10 41  1  0
 11 12  2  0
 11 42  1  0
 12 13  1  0
 12 14  1  0
 14 15  2  0
 14 43  1  0
 15 16  1  0
 16 17  1  0
 16 18  1  0
 16 44  1  6
 17 45  1  6
 17 46  1  0
 18 19  2  0
 18 20  1  0
 20 21  1  0
 20 47  1  0
 21 22  2  0
 21 26  1  0
 22 23  1  0
 22 27  1  0
 23 24  2  0
 23 30  1  0
 24 25  1  0
 24 48  1  0
 25 26  2  0
 26 49  1  0
 27 28  2  0
 27 50  1  0
 28 29  1  0
 28 51  1  0
 29 30  2  0
 31 29  1  6
 30 52  1  0
 31 32  2  0
 31 33  2  0
 31 34  1  0
 34 53  1  1
 34 54  1  0
 34 55  1  0
M  END
$$$$
