LIG(A-305)
     RDKit          3D

 34 35  0  0  0  0  0  0  0  0999 V2000
    6.9539   -4.3336   21.9373 N   0  0  0  0  0  0  0  0  0  0  0  0
    7.8738   -4.7847   19.8563 C   0  0  1  0  0  0  0  0  0  0  0  0
    5.5608   -4.2567   20.1404 O   0  0  0  0  0  0  0  0  0  0  0  0
    6.6568   -4.4266   20.6434 C   0  0  0  0  0  0  0  0  0  0  0  0
    0.5620   -4.8196   24.0797 C   0  0  1  0  0  0  0  0  0  0  0  0
    0.0051   -7.2956   24.9338 C   0  0  1  0  0  0  0  0  0  0  0  0
    1.1520   -7.7366   24.0527 C   0  0  1  0  0  0  0  0  0  0  0  0
    6.0769   -4.4746   23.0244 C   0  0  0  0  0  0  0  0  0  0  0  0
    6.0690   -3.4646   23.9784 C   0  0  0  0  0  0  0  0  0  0  0  0
    5.2060   -3.5515   25.0484 C   0  0  0  0  0  0  0  0  0  0  0  0
    4.3540   -4.6355   25.1725 C   0  0  0  0  0  0  0  0  0  0  0  0
    4.3570   -5.6506   24.2225 C   0  0  0  0  0  0  0  0  0  0  0  0
    5.2170   -5.5636   23.1275 C   0  0  0  0  0  0  0  0  0  0  0  0
    3.4260   -6.8216   24.3446 C   0  0  0  0  0  0  0  0  0  0  0  0
    1.6530   -5.4706   23.2596 C   0  0  1  0  0  0  0  0  0  0  0  0
    2.1590   -6.6756   23.9296 N   0  0  0  0  0  0  0  0  0  0  0  0
    3.8570   -7.8796   24.7996 O   0  0  0  0  0  0  0  0  0  0  0  0
   -0.8790   -5.8796   24.2628 S   0  0  0  0  0  0  0  0  0  0  0  0
    7.9096   -4.1416   22.1604 H   0  0  0  0  0  0  0  0  0  0  0  0
    7.6120   -4.8630   18.7908 H   0  0  0  0  0  0  0  0  0  0  0  0
    8.6388   -4.0055   19.9896 H   0  0  0  0  0  0  0  0  0  0  0  0
    8.2676   -5.7493   20.2089 H   0  0  0  0  0  0  0  0  0  0  0  0
    0.9604   -4.5887   25.0787 H   0  0  0  0  0  0  0  0  0  0  0  0
    0.2547   -3.8875   23.5830 H   0  0  0  0  0  0  0  0  0  0  0  0
   -0.7001   -8.1332   25.0395 H   0  0  0  0  0  0  0  0  0  0  0  0
    0.4042   -7.0252   25.9225 H   0  0  0  0  0  0  0  0  0  0  0  0
    1.6214   -8.6287   24.4930 H   0  0  0  0  0  0  0  0  0  0  0  0
    0.7640   -7.9819   23.0531 H   0  0  0  0  0  0  0  0  0  0  0  0
    6.7336   -2.6188   23.8818 H   0  0  0  0  0  0  0  0  0  0  0  0
    5.1941   -2.7704   25.7941 H   0  0  0  0  0  0  0  0  0  0  0  0
    3.6809   -4.6932   26.0150 H   0  0  0  0  0  0  0  0  0  0  0  0
    5.2152   -6.3323   22.3689 H   0  0  0  0  0  0  0  0  0  0  0  0
    1.2476   -5.7483   22.2755 H   0  0  0  0  0  0  0  0  0  0  0  0
    2.4796   -4.7570   23.1277 H   0  0  0  0  0  0  0  0  0  0  0  0
  1  4  1  0
  1  8  1  0
  1 19  1  0
  2  4  1  0
  2 20  1  6
  2 21  1  0
  2 22  1  0
  3  4  2  0
  5 15  1  0
  5 18  1  0
  5 23  1  1
  5 24  1  0
  6  7  1  0
  6 18  1  0
  6 25  1  1
  6 26  1  0
  7 16  1  0
  7 27  1  1
  7 28  1  0
  8  9  2  0
  8 13  1  0
  9 10  1  0
  9 29  1  0
 10 11  2  0
 10 30  1  0
 11 12  1  0
 11 31  1  0
 12 13  2  0
 12 14  1  0
 13 32  1  0
 14 16  1  0
 14 17  2  0
 15 16  1  0
 15 33  1  6
 15 34  1  0
M  END
$$$$
