LIG(A-305)
     RDKit          3D

 38 40  0  0  1  0  0  0  0  0999 V2000
    6.5599    1.1681   16.9423 O   0  0  0  0  0  0  0  0  0  0  0  0
    6.0850    0.9091   18.0424 C   0  0  0  0  0  0  0  0  0  0  0  0
    4.9161    1.4113   18.4354 N   0  0  0  0  0  0  0  0  0  0  0  0
    4.4642    1.6264   19.8264 C   0  0  1  0  0  0  0  0  0  0  0  0
    5.1982    0.6984   20.7824 C   0  0  1  0  0  0  0  0  0  0  0  0
    6.8380    0.0551   19.0194 C   0  0  1  0  0  0  0  0  0  0  0  0
    6.6732    0.6272   20.4263 C   0  0  2  0  0  0  0  0  0  0  0  0
    7.4372   -0.1408   21.4063 N   0  0  0  0  0  0  0  0  0  0  0  0
    8.6692    0.2131   21.7822 C   0  0  0  0  0  0  0  0  0  0  0  0
    9.2952    1.1111   21.2251 O   0  0  0  0  0  0  0  0  0  0  0  0
    9.2183   -0.5358   22.9992 C   0  0  2  0  0  0  0  0  0  0  0  0
    8.5574    0.0053   24.2792 C   0  0  1  0  0  0  0  0  0  0  0  0
    9.1435    1.3463   24.6341 C   0  0  1  0  0  0  0  0  0  0  0  0
   10.5605    1.2492   24.8780 O   0  0  0  0  0  0  0  0  0  0  0  0
   10.7213   -0.3399   23.0351 C   0  0  0  0  0  0  0  0  0  0  0  0
   11.5732   -1.0321   22.1721 C   0  0  0  0  0  0  0  0  0  0  0  0
   12.9292   -0.7692   22.1909 C   0  0  0  0  0  0  0  0  0  0  0  0
   13.9760   -1.6443   21.1129 Cl  0  0  0  0  0  0  0  0  0  0  0  0
   11.2854    0.5931   23.9120 C   0  0  0  0  0  0  0  0  0  0  0  0
   12.6454    0.8570   23.9059 C   0  0  0  0  0  0  0  0  0  0  0  0
   13.4733    0.1698   23.0389 C   0  0  0  0  0  0  0  0  0  0  0  0
    4.2755    1.6705   17.7126 H   0  0  0  0  0  0  0  0  0  0  0  0
    4.6628    2.6697   20.1129 H   0  0  0  0  0  0  0  0  0  0  0  0
    3.3841    1.4280   19.8894 H   0  0  0  0  0  0  0  0  0  0  0  0
    5.0915    1.0782   21.8092 H   0  0  0  0  0  0  0  0  0  0  0  0
    4.7608   -0.3088   20.7167 H   0  0  0  0  0  0  0  0  0  0  0  0
    6.4417   -0.9706   18.9915 H   0  0  0  0  0  0  0  0  0  0  0  0
    7.9046    0.0435   18.7506 H   0  0  0  0  0  0  0  0  0  0  0  0
    7.0624    1.6560   20.4131 H   0  0  0  0  0  0  0  0  0  0  0  0
    7.0245   -0.9579   21.8088 H   0  0  0  0  0  0  0  0  0  0  0  0
    8.9902   -1.6073   22.8998 H   0  0  0  0  0  0  0  0  0  0  0  0
    7.4754    0.1132   24.1129 H   0  0  0  0  0  0  0  0  0  0  0  0
    8.7329   -0.6992   25.1056 H   0  0  0  0  0  0  0  0  0  0  0  0
    8.9699    2.0448   23.8024 H   0  0  0  0  0  0  0  0  0  0  0  0
    8.6488    1.7252   25.5406 H   0  0  0  0  0  0  0  0  0  0  0  0
   11.1735   -1.7701   21.4924 H   0  0  0  0  0  0  0  0  0  0  0  0
   13.0570    1.5970   24.5763 H   0  0  0  0  0  0  0  0  0  0  0  0
   14.5351    0.3670   23.0263 H   0  0  0  0  0  0  0  0  0  0  0  0
  1  2  2  0
  2  3  1  0
  2  6  1  0
  3  4  1  0
  3 22  1  0
  4  5  1  0
  4 23  1  1
  4 24  1  0
  5  7  1  0
  5 25  1  1
  5 26  1  0
  6  7  1  0
  6 27  1  1
  6 28  1  0
  7  8  1  0
  7 29  1  6
  8  9  1  0
  8 30  1  0
  9 10  2  0
  9 11  1  0
 11 12  1  0
 11 15  1  0
 11 31  1  6
 12 13  1  0
 12 32  1  6
 12 33  1  0
 13 14  1  0
 13 34  1  6
 13 35  1  0
 14 19  1  0
 15 16  2  0
 15 19  1  0
 16 17  1  0
 16 36  1  0
 17 18  1  0
 17 21  2  0
 19 20  2  0
 20 21  1  0
 20 37  1  0
 21 38  1  0
M  END
$$$$
