LIG(A-305)
     RDKit          3D

 32 34  0  0  0  0  0  0  0  0999 V2000
    8.9503    0.9082   21.1693 O   0  0  0  0  0  0  0  0  0  0  0  0
    8.5743   -0.2188   21.4805 C   0  0  0  0  0  0  0  0  0  0  0  0
    8.9884   -0.8637   22.7895 C   0  0  1  0  0  0  0  0  0  0  0  0
   10.4665   -0.6628   23.0252 C   0  0  0  0  0  0  0  0  0  0  0  0
   10.9196    0.2793   23.9401 C   0  0  0  0  0  0  0  0  0  0  0  0
   12.2567    0.6442   23.9789 C   0  0  0  0  0  0  0  0  0  0  0  0
   13.1665    0.0531   23.1128 C   0  0  0  0  0  0  0  0  0  0  0  0
   11.3903   -1.2969   22.2002 C   0  0  0  0  0  0  0  0  0  0  0  0
   12.7183   -0.9299   22.2539 C   0  0  0  0  0  0  0  0  0  0  0  0
   13.8592   -1.7460   21.2188 Cl  0  0  0  0  0  0  0  0  0  0  0  0
    7.7461   -0.9578   20.7206 N   0  0  0  0  0  0  0  0  0  0  0  0
    7.0820   -0.3548   19.6597 N   0  0  0  0  0  0  0  0  0  0  0  0
    5.8981    0.3733   19.7578 C   0  0  0  0  0  0  0  0  0  0  0  0
    5.6829    0.8492   18.4638 C   0  0  0  0  0  0  0  0  0  0  0  0
    6.6808    0.3831   17.6007 N   0  0  0  0  0  0  0  0  0  0  0  0
    7.4808   -0.3169   18.3646 C   0  0  0  0  0  0  0  0  0  0  0  0
    5.1342    0.7944   20.8389 C   0  0  0  0  0  0  0  0  0  0  0  0
    4.1212    1.7144   20.5930 C   0  0  0  0  0  0  0  0  0  0  0  0
    3.8841    2.1933   19.3020 C   0  0  0  0  0  0  0  0  0  0  0  0
    4.6599    1.7662   18.2279 C   0  0  0  0  0  0  0  0  0  0  0  0
    8.4233   -0.4060   23.6148 H   0  0  0  0  0  0  0  0  0  0  0  0
    8.7702   -1.9411   22.7488 H   0  0  0  0  0  0  0  0  0  0  0  0
   10.2225    0.7327   24.6292 H   0  0  0  0  0  0  0  0  0  0  0  0
   12.5912    1.3901   24.6846 H   0  0  0  0  0  0  0  0  0  0  0  0
   14.2031    0.3562   23.1112 H   0  0  0  0  0  0  0  0  0  0  0  0
   11.0687   -2.0726   21.5210 H   0  0  0  0  0  0  0  0  0  0  0  0
    7.6102   -1.9288   20.9169 H   0  0  0  0  0  0  0  0  0  0  0  0
    8.3681   -0.8135   18.0003 H   0  0  0  0  0  0  0  0  0  0  0  0
    5.3206    0.4205   21.8348 H   0  0  0  0  0  0  0  0  0  0  0  0
    3.5091    2.0638   21.4112 H   0  0  0  0  0  0  0  0  0  0  0  0
    3.0884    2.9043   19.1351 H   0  0  0  0  0  0  0  0  0  0  0  0
    4.4729    2.1381   17.2313 H   0  0  0  0  0  0  0  0  0  0  0  0
  1  2  2  0
  2  3  1  0
  2 11  1  0
  3  4  1  0
  3 21  1  1
  3 22  1  0
  4  5  2  0
  4  8  1  0
  5  6  1  0
  5 23  1  0
  6  7  2  0
  6 24  1  0
  7  9  1  0
  7 25  1  0
  8  9  2  0
  8 26  1  0
  9 10  1  0
 11 12  1  0
 11 27  1  0
 12 13  1  0
 12 16  1  0
 13 14  2  0
 13 17  1  0
 14 15  1  0
 14 20  1  0
 15 16  2  0
 16 28  1  0
 17 18  2  0
 17 29  1  0
 18 19  1  0
 18 30  1  0
 19 20  2  0
 19 31  1  0
 20 32  1  0
M  END
$$$$
