LIG(A-307)
     RDKit          3D

 37 39  0  0  0  0  0  0  0  0999 V2000
    9.0402    1.0472   21.3858 O   0  0  0  0  0  0  0  0  0  0  0  0
    8.8629   -0.0753   21.8413 C   0  0  0  0  0  0  0  0  0  0  0  0
    7.7576   -0.9643   21.2675 C   0  0  1  0  0  0  0  0  0  0  0  0
    7.1035   -0.3320   20.1415 N   0  0  0  0  0  0  0  0  0  0  0  0
    5.9806    0.4351   20.1174 C   0  0  0  0  0  0  0  0  0  0  0  0
    5.1255    0.9129   21.0982 C   0  0  0  0  0  0  0  0  0  0  0  0
    4.0640    1.7152   20.6967 C   0  0  0  0  0  0  0  0  0  0  0  0
    3.8644    2.0149   19.3509 C   0  0  0  0  0  0  0  0  0  0  0  0
    4.7258    1.5296   18.3754 C   0  0  0  0  0  0  0  0  0  0  0  0
    5.8037    0.7419   18.7707 C   0  0  0  0  0  0  0  0  0  0  0  0
    6.8281    0.1669   18.0519 N   0  0  0  0  0  0  0  0  0  0  0  0
    7.6008   -0.4717   18.8850 N   0  0  0  0  0  0  0  0  0  0  0  0
    9.6124   -0.5559   22.8613 N   0  0  0  0  0  0  0  0  0  0  0  0
    9.6204   -1.9396   23.3231 C   0  0  1  0  0  0  0  0  0  0  0  0
   10.4625    0.3642   23.6342 C   0  0  1  0  0  0  0  0  0  0  0  0
   11.8689    0.5061   23.0950 C   0  0  0  0  0  0  0  0  0  0  0  0
   12.4455   -0.4883   22.3096 C   0  0  0  0  0  0  0  0  0  0  0  0
   13.7359   -0.3200   21.8647 C   0  0  0  0  0  0  0  0  0  0  0  0
   14.2845   -1.2942   21.0926 F   0  0  0  0  0  0  0  0  0  0  0  0
   14.4961    0.7765   22.1602 C   0  0  0  0  0  0  0  0  0  0  0  0
   13.9218    1.7668   22.9397 C   0  0  0  0  0  0  0  0  0  0  0  0
   12.6227    1.6326   23.4007 C   0  0  0  0  0  0  0  0  0  0  0  0
    8.1991   -1.9160   20.9369 H   0  0  0  0  0  0  0  0  0  0  0  0
    7.0114   -1.1591   22.0519 H   0  0  0  0  0  0  0  0  0  0  0  0
    5.2789    0.6699   22.1393 H   0  0  0  0  0  0  0  0  0  0  0  0
    3.3852    2.1113   21.4374 H   0  0  0  0  0  0  0  0  0  0  0  0
    3.0277    2.6337   19.0620 H   0  0  0  0  0  0  0  0  0  0  0  0
    4.5629    1.7583   17.3325 H   0  0  0  0  0  0  0  0  0  0  0  0
   10.3219   -2.0420   24.1641 H   0  0  0  0  0  0  0  0  0  0  0  0
    8.6096   -2.2220   23.6524 H   0  0  0  0  0  0  0  0  0  0  0  0
    9.9355   -2.5986   22.5006 H   0  0  0  0  0  0  0  0  0  0  0  0
    9.9893    1.3573   23.6303 H   0  0  0  0  0  0  0  0  0  0  0  0
   10.5246   -0.0083   24.6673 H   0  0  0  0  0  0  0  0  0  0  0  0
   11.8885   -1.3774   22.0538 H   0  0  0  0  0  0  0  0  0  0  0  0
   15.5097    0.8676   21.7984 H   0  0  0  0  0  0  0  0  0  0  0  0
   14.4909    2.6499   23.1898 H   0  0  0  0  0  0  0  0  0  0  0  0
   12.1894    2.4147   24.0064 H   0  0  0  0  0  0  0  0  0  0  0  0
  1  2  2  0
  2  3  1  0
  2 13  1  0
  3  4  1  0
  3 23  1  6
  3 24  1  0
  4  5  1  0
  4 12  1  0
  5  6  2  0
  5 10  1  0
  6  7  1  0
  6 25  1  0
  7  8  2  0
  7 26  1  0
  8  9  1  0
  8 27  1  0
  9 10  2  0
  9 28  1  0
 10 11  1  0
 11 12  2  0
 13 14  1  0
 13 15  1  0
 14 29  1  1
 14 30  1  0
 14 31  1  0
 15 16  1  0
 15 32  1  1
 15 33  1  0
 16 17  2  0
 16 22  1  0
 17 18  1  0
 17 34  1  0
 18 19  1  0
 18 20  2  0
 20 21  1  0
 20 35  1  0
 21 22  2  0
 21 36  1  0
 22 37  1  0
M  END
$$$$
