LIG(A-305)
     RDKit          3D

 30 31  0  0  1  0  0  0  0  0999 V2000
   11.8053    0.8723   23.7560 N   0  0  0  0  0  0  0  0  0  0  0  0
   10.9913    0.1762   23.3740 C   0  0  0  0  0  0  0  0  0  0  0  0
    9.9164   -0.6579   22.8100 C   0  0  1  0  0  0  0  0  0  0  0  0
   10.5365   -1.9789   22.3401 C   0  0  1  0  0  0  0  0  0  0  0  0
   10.5056   -2.8149   23.4921 O   0  0  0  0  0  0  0  0  0  0  0  0
    9.2446   -2.5680   24.1151 C   0  0  1  0  0  0  0  0  0  0  0  0
    8.9605   -1.0850   23.9561 C   0  0  2  0  0  0  0  0  0  0  0  0
    9.3053    0.1650   21.6590 C   0  0  0  0  0  0  0  0  0  0  0  0
   10.0262    0.9051   21.0150 O   0  0  0  0  0  0  0  0  0  0  0  0
    7.9723    0.1799   21.5481 N   0  0  0  0  0  0  0  0  0  0  0  0
    7.1833    0.3408   20.3851 C   0  0  0  0  0  0  0  0  0  0  0  0
    5.8272    0.6566   20.5371 C   0  0  0  0  0  0  0  0  0  0  0  0
    5.2142    0.8936   21.8931 C   0  0  1  0  0  0  0  0  0  0  0  0
    7.6803    0.1548   19.0901 C   0  0  0  0  0  0  0  0  0  0  0  0
    6.9532    0.3297   17.9821 N   0  0  0  0  0  0  0  0  0  0  0  0
    5.6782    0.6966   18.1421 C   0  0  0  0  0  0  0  0  0  0  0  0
    5.0812    0.8555   19.3781 C   0  0  0  0  0  0  0  0  0  0  0  0
    9.9438   -2.4184   21.5243 H   0  0  0  0  0  0  0  0  0  0  0  0
   11.5709   -1.8238   21.9994 H   0  0  0  0  0  0  0  0  0  0  0  0
    8.4575   -3.1593   23.6244 H   0  0  0  0  0  0  0  0  0  0  0  0
    9.2908   -2.8325   25.1818 H   0  0  0  0  0  0  0  0  0  0  0  0
    7.9102   -0.9128   23.6777 H   0  0  0  0  0  0  0  0  0  0  0  0
    9.1883   -0.5387   24.8833 H   0  0  0  0  0  0  0  0  0  0  0  0
    7.4655    0.0613   22.4020 H   0  0  0  0  0  0  0  0  0  0  0  0
    5.7211    1.7382   22.3827 H   0  0  0  0  0  0  0  0  0  0  0  0
    4.1452    1.1252   21.7767 H   0  0  0  0  0  0  0  0  0  0  0  0
    5.3286   -0.0099   22.5100 H   0  0  0  0  0  0  0  0  0  0  0  0
    8.7112   -0.1476   18.9795 H   0  0  0  0  0  0  0  0  0  0  0  0
    5.0833    0.8783   17.2592 H   0  0  0  0  0  0  0  0  0  0  0  0
    4.0396    1.1330   19.4451 H   0  0  0  0  0  0  0  0  0  0  0  0
  1  2  3  0
  3  2  1  1
  3  4  1  0
  3  7  1  0
  3  8  1  0
  4  5  1  0
  4 18  1  6
  4 19  1  0
  5  6  1  0
  6  7  1  0
  6 20  1  6
  6 21  1  0
  7 22  1  6
  7 23  1  0
  8  9  2  0
  8 10  1  0
 10 11  1  0
 10 24  1  0
 11 12  2  0
 11 14  1  0
 12 13  1  0
 12 17  1  0
 13 25  1  1
 13 26  1  0
 13 27  1  0
 14 15  2  0
 14 28  1  0
 15 16  1  0
 16 17  2  0
 16 29  1  0
 17 30  1  0
M  END
$$$$
