LIG(A-305)
     RDKit          3D

 65 67  0  0  1  0  0  0  0  0999 V2000
    9.3616    1.2775   20.9824 O   0  0  0  0  0  0  0  0  0  0  0  0
    8.3337    1.1997   21.6447 C   0  0  0  0  0  0  0  0  0  0  0  0
    8.0400    2.0398   22.6677 N   0  0  0  0  0  0  0  0  0  0  0  0
    8.7691    3.2038   23.0314 C   0  0  0  0  0  0  0  0  0  0  0  0
    8.3071    4.4627   22.6444 C   0  0  0  0  0  0  0  0  0  0  0  0
    8.9993    5.5987   23.0312 C   0  0  0  0  0  0  0  0  0  0  0  0
   10.1304    5.4837   23.8259 C   0  0  0  0  0  0  0  0  0  0  0  0
   10.7386    6.6497   24.2247 O   0  0  0  0  0  0  0  0  0  0  0  0
   11.8888    6.5717   25.0754 C   0  0  1  0  0  0  0  0  0  0  0  0
   10.5984    4.2347   24.2049 C   0  0  0  0  0  0  0  0  0  0  0  0
    9.9393    3.0777   23.8092 C   0  0  0  0  0  0  0  0  0  0  0  0
   10.5033    1.7387   24.2052 C   0  0  1  0  0  0  0  0  0  0  0  0
    7.2625    0.1527   21.2940 C   0  0  1  0  0  0  0  0  0  0  0  0
    6.6013    0.4456   19.9541 C   0  0  0  0  0  0  0  0  0  0  0  0
    5.3863    1.1127   19.8873 C   0  0  0  0  0  0  0  0  0  0  0  0
    4.8321    1.4276   18.6604 C   0  0  0  0  0  0  0  0  0  0  0  0
    5.5128    1.0485   17.5183 C   0  0  0  0  0  0  0  0  0  0  0  0
    6.6838    0.4024   17.5421 N   0  0  0  0  0  0  0  0  0  0  0  0
    7.2010    0.1165   18.7440 C   0  0  0  0  0  0  0  0  0  0  0  0
    7.5475   -1.2853   21.5721 N   0  0  0  0  0  0  0  0  0  0  0  0
    6.7254   -2.3093   21.1893 C   0  0  0  0  0  0  0  0  0  0  0  0
    5.6753   -2.1063   20.6085 O   0  0  0  0  0  0  0  0  0  0  0  0
    7.1453   -3.7253   21.4914 C   0  0  1  0  0  0  0  0  0  0  0  0
    7.1560   -4.5654   20.2404 C   0  0  1  0  0  0  0  0  0  0  0  0
    8.7387   -1.5243   22.3428 C   0  0  0  0  0  0  0  0  0  0  0  0
    8.6970   -1.4882   23.7348 C   0  0  0  0  0  0  0  0  0  0  0  0
    9.8671   -1.5922   24.4656 C   0  0  0  0  0  0  0  0  0  0  0  0
   11.1010   -1.7093   23.8383 C   0  0  0  0  0  0  0  0  0  0  0  0
   11.1277   -1.8074   22.4533 C   0  0  0  0  0  0  0  0  0  0  0  0
    9.9635   -1.7184   21.7076 C   0  0  0  0  0  0  0  0  0  0  0  0
   12.3812   -1.5343   24.6220 C   0  0  2  0  0  0  0  0  0  0  0  0
   13.3361   -0.5645   23.9617 C   0  0  1  0  0  0  0  0  0  0  0  0
   13.1301   -2.7384   24.6670 O   0  0  0  0  0  0  0  0  0  0  0  0
   12.9743   -3.4313   25.8961 C   0  0  1  0  0  0  0  0  0  0  0  0
    7.2345    1.8195   23.2178 H   0  0  0  0  0  0  0  0  0  0  0  0
    7.4129    4.5510   22.0453 H   0  0  0  0  0  0  0  0  0  0  0  0
    8.6585    6.5732   22.7141 H   0  0  0  0  0  0  0  0  0  0  0  0
   12.2499    7.5865   25.2986 H   0  0  0  0  0  0  0  0  0  0  0  0
   11.6173    6.0648   26.0131 H   0  0  0  0  0  0  0  0  0  0  0  0
   12.6822    6.0036   24.5679 H   0  0  0  0  0  0  0  0  0  0  0  0
   11.4864    4.1605   24.8153 H   0  0  0  0  0  0  0  0  0  0  0  0
   10.7508    1.1627   23.3014 H   0  0  0  0  0  0  0  0  0  0  0  0
   11.4128    1.8872   24.8058 H   0  0  0  0  0  0  0  0  0  0  0  0
    9.7582    1.1881   24.7981 H   0  0  0  0  0  0  0  0  0  0  0  0
    6.4615    0.3852   22.0111 H   0  0  0  0  0  0  0  0  0  0  0  0
    4.8720    1.3867   20.7966 H   0  0  0  0  0  0  0  0  0  0  0  0
    3.8923    1.9558   18.5959 H   0  0  0  0  0  0  0  0  0  0  0  0
    5.0773    1.2858   16.5590 H   0  0  0  0  0  0  0  0  0  0  0  0
    8.1467   -0.4043   18.7751 H   0  0  0  0  0  0  0  0  0  0  0  0
    8.1556   -3.7155   21.9264 H   0  0  0  0  0  0  0  0  0  0  0  0
    6.4398   -4.1634   22.2125 H   0  0  0  0  0  0  0  0  0  0  0  0
    7.4653   -5.5912   20.4896 H   0  0  0  0  0  0  0  0  0  0  0  0
    6.1473   -4.5830   19.8021 H   0  0  0  0  0  0  0  0  0  0  0  0
    7.8631   -4.1351   19.5159 H   0  0  0  0  0  0  0  0  0  0  0  0
    7.7507   -1.3789   24.2438 H   0  0  0  0  0  0  0  0  0  0  0  0
    9.8204   -1.5821   25.5445 H   0  0  0  0  0  0  0  0  0  0  0  0
   12.0714   -1.9556   21.9493 H   0  0  0  0  0  0  0  0  0  0  0  0
   10.0055   -1.7997   20.6315 H   0  0  0  0  0  0  0  0  0  0  0  0
   12.1450   -1.1826   25.6372 H   0  0  0  0  0  0  0  0  0  0  0  0
   14.2475   -0.4744   24.5709 H   0  0  0  0  0  0  0  0  0  0  0  0
   13.5998   -0.9345   22.9600 H   0  0  0  0  0  0  0  0  0  0  0  0
   12.8551    0.4209   23.8739 H   0  0  0  0  0  0  0  0  0  0  0  0
   13.5741   -4.3532   25.8764 H   0  0  0  0  0  0  0  0  0  0  0  0
   13.3136   -2.7907   26.7234 H   0  0  0  0  0  0  0  0  0  0  0  0
   11.9142   -3.6867   26.0410 H   0  0  0  0  0  0  0  0  0  0  0  0
  1  2  2  0
  2  3  1  0
  2 13  1  0
  3  4  1  0
  3 35  1  0
  4  5  2  0
  4 11  1  0
  5  6  1  0
  5 36  1  0
  6  7  2  0
  6 37  1  0
  7  8  1  0
  7 10  1  0
  8  9  1  0
  9 38  1  1
  9 39  1  0
  9 40  1  0
 10 11  2  0
 10 41  1  0
 11 12  1  0
 12 42  1  6
 12 43  1  0
 12 44  1  0
 13 14  1  0
 13 20  1  0
 13 45  1  1
 14 15  2  0
 14 19  1  0
 15 16  1  0
 15 46  1  0
 16 17  2  0
 16 47  1  0
 17 18  1  0
 17 48  1  0
 18 19  2  0
 19 49  1  0
 20 21  1  0
 20 25  1  0
 21 22  2  0
 21 23  1  0
 23 24  1  0
 23 50  1  1
 23 51  1  0
 24 52  1  1
 24 53  1  0
 24 54  1  0
 25 26  2  0
 25 30  1  0
 26 27  1  0
 26 55  1  0
 27 28  2  0
 27 56  1  0
 28 29  1  0
 28 31  1  0
 29 30  2  0
 29 57  1  0
 30 58  1  0
 31 32  1  0
 31 33  1  0
 31 59  1  1
 32 60  1  1
 32 61  1  0
 32 62  1  0
 33 34  1  0
 34 63  1  6
 34 64  1  0
 34 65  1  0
M  END
$$$$
