LIG(A-306)
     RDKit          3D

 52 55  0  0  1  0  0  0  0  0999 V2000
    9.2868    0.8057   21.1739 O   0  0  0  0  0  0  0  0  0  0  0  0
    8.7158   -0.1973   21.6018 C   0  0  0  0  0  0  0  0  0  0  0  0
    7.5718   -0.6853   21.0638 N   0  0  0  0  0  0  0  0  0  0  0  0
    6.8278   -0.1493   19.9888 C   0  0  0  0  0  0  0  0  0  0  0  0
    5.6998    0.6806   20.2858 C   0  0  0  0  0  0  0  0  0  0  0  0
    5.2238    0.9266   21.6008 C   0  0  0  0  0  0  0  0  0  0  0  0
    4.1537    1.7476   21.8168 C   0  0  0  0  0  0  0  0  0  0  0  0
    3.5157    2.3786   20.7518 C   0  0  0  0  0  0  0  0  0  0  0  0
    3.9247    2.1596   19.4688 C   0  0  0  0  0  0  0  0  0  0  0  0
    5.0138    1.2936   19.1978 C   0  0  0  0  0  0  0  0  0  0  0  0
    5.4678    1.0047   17.8868 C   0  0  0  0  0  0  0  0  0  0  0  0
    6.5078    0.2277   17.6118 N   0  0  0  0  0  0  0  0  0  0  0  0
    7.1608   -0.3223   18.6458 C   0  0  0  0  0  0  0  0  0  0  0  0
    9.2228   -0.9613   22.8278 C   0  0  1  0  0  0  0  0  0  0  0  0
   10.6938   -0.6282   23.0199 C   0  0  0  0  0  0  0  0  0  0  0  0
   11.0648    0.3968   23.9039 C   0  0  0  0  0  0  0  0  0  0  0  0
   12.3878    0.8358   23.9199 C   0  0  0  0  0  0  0  0  0  0  0  0
   13.3368    0.2718   23.0889 C   0  0  0  0  0  0  0  0  0  0  0  0
   11.6698   -1.2382   22.2279 C   0  0  0  0  0  0  0  0  0  0  0  0
   12.9708   -0.7702   22.2669 C   0  0  0  0  0  0  0  0  0  0  0  0
   14.1688   -1.5021   21.2329 Cl  0  0  0  0  0  0  0  0  0  0  0  0
    8.4138   -0.5463   24.0598 C   0  0  1  0  0  0  0  0  0  0  0  0
    8.6738    0.8617   24.3648 N   0  0  2  0  0  0  0  0  0  0  0  0
   10.0577    1.0337   24.8359 C   0  0  2  0  0  0  0  0  0  0  0  0
    7.7037    1.4477   25.2868 C   0  0  1  0  0  0  0  0  0  0  0  0
    7.0697    2.7417   24.7999 C   0  0  0  0  0  0  0  0  0  0  0  0
    5.9077    3.0186   25.0838 O   0  0  0  0  0  0  0  0  0  0  0  0
    7.8457    3.5297   24.0569 N   0  0  0  0  0  0  0  0  0  0  0  0
    7.3357    4.1827   22.8609 C   0  0  1  0  0  0  0  0  0  0  0  0
    7.8876    5.5407   22.6989 C   0  0  0  0  0  0  0  0  0  0  0  0
    8.3076    6.5917   22.5289 N   0  0  0  0  0  0  0  0  0  0  0  0
    7.2121   -1.5225   21.4757 H   0  0  0  0  0  0  0  0  0  0  0  0
    5.7143    0.4583   22.4413 H   0  0  0  0  0  0  0  0  0  0  0  0
    3.7987    1.9091   22.8239 H   0  0  0  0  0  0  0  0  0  0  0  0
    2.6896    3.0474   20.9433 H   0  0  0  0  0  0  0  0  0  0  0  0
    3.4146    2.6501   18.6529 H   0  0  0  0  0  0  0  0  0  0  0  0
    4.9330    1.4450   17.0583 H   0  0  0  0  0  0  0  0  0  0  0  0
    8.0115   -0.9485   18.4208 H   0  0  0  0  0  0  0  0  0  0  0  0
    9.1074   -2.0423   22.6601 H   0  0  0  0  0  0  0  0  0  0  0  0
   12.6757    1.6298   24.5929 H   0  0  0  0  0  0  0  0  0  0  0  0
   14.3510    0.6431   23.0843 H   0  0  0  0  0  0  0  0  0  0  0  0
   11.4101   -2.0697   21.5893 H   0  0  0  0  0  0  0  0  0  0  0  0
    7.3415   -0.6854   23.8579 H   0  0  0  0  0  0  0  0  0  0  0  0
    8.7089   -1.1676   24.9182 H   0  0  0  0  0  0  0  0  0  0  0  0
    8.5971    1.3643   23.5038 H   0  0  0  0  0  0  0  0  0  0  0  0
   10.2751    2.1095   24.9097 H   0  0  0  0  0  0  0  0  0  0  0  0
   10.1534    0.5713   25.8294 H   0  0  0  0  0  0  0  0  0  0  0  0
    6.9015    0.7138   25.4530 H   0  0  0  0  0  0  0  0  0  0  0  0
    8.2156    1.6532   26.2386 H   0  0  0  0  0  0  0  0  0  0  0  0
    8.7976    3.6752   24.3266 H   0  0  0  0  0  0  0  0  0  0  0  0
    7.6096    3.5802   21.9823 H   0  0  0  0  0  0  0  0  0  0  0  0
    6.2401    4.2501   22.9321 H   0  0  0  0  0  0  0  0  0  0  0  0
  1  2  2  0
  2  3  1  0
  2 14  1  0
  3  4  1  0
  3 32  1  0
  4  5  2  0
  4 13  1  0
  5  6  1  0
  5 10  1  0
  6  7  2  0
  6 33  1  0
  7  8  1  0
  7 34  1  0
  8  9  2  0
  8 35  1  0
  9 10  1  0
  9 36  1  0
 10 11  2  0
 11 12  1  0
 11 37  1  0
 12 13  2  0
 13 38  1  0
 14 15  1  0
 14 22  1  0
 14 39  1  6
 15 16  2  0
 15 19  1  0
 16 17  1  0
 16 24  1  0
 17 18  2  0
 17 40  1  0
 18 20  1  0
 18 41  1  0
 19 20  2  0
 19 42  1  0
 20 21  1  0
 22 23  1  0
 22 43  1  6
 22 44  1  0
 23 24  1  0
 23 25  1  0
 23 45  1  6
 24 46  1  1
 24 47  1  0
 25 26  1  0
 25 48  1  1
 25 49  1  0
 26 27  2  0
 26 28  1  0
 28 29  1  0
 28 50  1  0
 29 30  1  0
 29 51  1  6
 29 52  1  0
 30 31  3  0
M  CHG  1  23   1
M  END
$$$$
