LIG(A-306)
     RDKit          3D

 55 59  0  0  0  0  0  0  0  0999 V2000
   -8.7740   -0.6793  -21.5731 C   0  0  0  0  0  0  0  0  0  0  0  0
   -8.8649   -2.5710  -23.0420 C   0  0  0  0  0  0  0  0  0  0  0  0
   -9.4793   -1.4118  -22.5515 C   0  0  0  0  0  0  0  0  0  0  0  0
  -10.8565   -0.9741  -23.0295 C   0  0  0  0  0  0  0  0  0  0  0  0
  -11.8912   -1.9148  -23.0378 C   0  0  0  0  0  0  0  0  0  0  0  0
   -6.7908   -0.3545  -20.1340 C   0  0  0  0  0  0  0  0  0  0  0  0
  -13.1753   -1.5279  -23.4592 C   0  0  0  0  0  0  0  0  0  0  0  0
  -13.4206   -0.2040  -23.8643 C   0  0  0  0  0  0  0  0  0  0  0  0
  -12.3933    0.7457  -23.8311 C   0  0  0  0  0  0  0  0  0  0  0  0
  -11.9343    3.1347  -23.6636 C   0  0  1  0  0  0  0  0  0  0  0  0
  -12.5748    4.4318  -24.1648 C   0  0  0  0  0  0  0  0  0  0  0  0
  -11.1090    0.3557  -23.4127 C   0  0  0  0  0  0  0  0  0  0  0  0
   -7.1999   -0.4497  -18.7982 C   0  0  0  0  0  0  0  0  0  0  0  0
   -5.4063    1.0351  -18.1974 C   0  0  0  0  0  0  0  0  0  0  0  0
   -5.0048    1.1189  -19.5371 C   0  0  0  0  0  0  0  0  0  0  0  0
   -5.6911    0.4121  -20.5268 C   0  0  0  0  0  0  0  0  0  0  0  0
   -6.9257   -2.2465  -21.6500 C   0  0  0  0  0  0  0  0  0  0  0  0
   -7.6093   -2.9978  -22.5931 C   0  0  0  0  0  0  0  0  0  0  0  0
   -6.9760   -4.2536  -23.1945 C   0  0  0  0  0  0  0  0  0  0  0  0
   -6.1742   -5.1767  -22.4764 C   0  0  0  0  0  0  0  0  0  0  0  0
   -7.2150   -4.4477  -24.5666 C   0  0  0  0  0  0  0  0  0  0  0  0
   -5.9008   -6.4541  -24.5290 C   0  0  0  0  0  0  0  0  0  0  0  0
  -12.0770    5.1165  -25.2772 C   0  0  0  0  0  0  0  0  0  0  0  0
  -12.7159    6.2955  -25.7070 C   0  0  0  0  0  0  0  0  0  0  0  0
  -13.8475    6.7908  -25.0374 C   0  0  0  0  0  0  0  0  0  0  0  0
  -14.3511    6.0998  -23.9270 C   0  0  0  0  0  0  0  0  0  0  0  0
  -13.7103    4.9229  -23.5072 C   0  0  0  0  0  0  0  0  0  0  0  0
   -7.5167   -1.0991  -21.1333 N   0  0  0  0  0  0  0  0  0  0  0  0
   -6.4972    0.2477  -17.8124 N   0  0  0  0  0  0  0  0  0  0  0  0
   -5.6361   -6.2771  -23.1587 N   0  0  0  0  0  0  0  0  0  0  0  0
   -6.6883   -5.5404  -25.2349 N   0  0  0  0  0  0  0  0  0  0  0  0
   -9.3185    0.4813  -21.0325 O   0  0  0  0  0  0  0  0  0  0  0  0
  -12.6727    2.0714  -24.2183 O   0  0  0  0  0  0  0  0  0  0  0  0
   -5.8945   -5.0231  -21.1109 O   0  0  0  0  0  0  0  0  0  0  0  0
   -5.3823   -7.5404  -25.2264 O   0  0  0  0  0  0  0  0  0  0  0  0
  -14.5052   -2.7220  -23.5108 Cl  0  0  0  0  0  0  0  0  0  0  0  0
  -14.3062    4.0105  -22.0953 Cl  0  0  0  0  0  0  0  0  0  0  0  0
   -9.3772   -3.1556  -23.7918 H   0  0  0  0  0  0  0  0  0  0  0  0
  -11.7051   -2.9310  -22.7228 H   0  0  0  0  0  0  0  0  0  0  0  0
  -14.4059    0.0811  -24.2024 H   0  0  0  0  0  0  0  0  0  0  0  0
  -10.8860    3.0790  -23.9925 H   0  0  0  0  0  0  0  0  0  0  0  0
  -11.9767    3.0918  -22.5653 H   0  0  0  0  0  0  0  0  0  0  0  0
  -10.3105    1.0824  -23.3852 H   0  0  0  0  0  0  0  0  0  0  0  0
   -8.0519   -1.0575  -18.5320 H   0  0  0  0  0  0  0  0  0  0  0  0
   -4.8628    1.5895  -17.4466 H   0  0  0  0  0  0  0  0  0  0  0  0
   -4.1590    1.7343  -19.8062 H   0  0  0  0  0  0  0  0  0  0  0  0
   -5.3821    0.4566  -21.5607 H   0  0  0  0  0  0  0  0  0  0  0  0
   -5.9432   -2.5497  -21.3195 H   0  0  0  0  0  0  0  0  0  0  0  0
   -7.8186   -3.7338  -25.1075 H   0  0  0  0  0  0  0  0  0  0  0  0
  -11.2099    4.7445  -25.8025 H   0  0  0  0  0  0  0  0  0  0  0  0
  -12.3301    6.8271  -26.5643 H   0  0  0  0  0  0  0  0  0  0  0  0
  -14.3261    7.6977  -25.3762 H   0  0  0  0  0  0  0  0  0  0  0  0
  -15.2199    6.4675  -23.4013 H   0  0  0  0  0  0  0  0  0  0  0  0
   -5.0635   -6.9357  -22.6691 H   0  0  0  0  0  0  0  0  0  0  0  0
   -6.8707   -5.6756  -26.2088 H   0  0  0  0  0  0  0  0  0  0  0  0
  1  3  1  0
  1 28  1  0
  1 32  2  0
  2  3  2  0
  2 18  1  0
  2 38  1  0
  3  4  1  0
  4  5  2  0
  4 12  1  0
  5  7  1  0
  5 39  1  0
  6 13  2  0
  6 16  1  0
  6 28  1  0
  7  8  2  0
  7 36  1  0
  8  9  1  0
  8 40  1  0
  9 12  2  0
  9 33  1  0
 10 11  1  0
 10 33  1  0
 10 41  1  1
 10 42  1  0
 11 23  2  0
 11 27  1  0
 12 43  1  0
 13 29  1  0
 13 44  1  0
 14 15  1  0
 14 29  2  0
 14 45  1  0
 15 16  2  0
 15 46  1  0
 16 47  1  0
 17 18  2  0
 17 28  1  0
 17 48  1  0
 18 19  1  0
 19 20  1  0
 19 21  2  0
 20 30  1  0
 20 34  2  0
 21 31  1  0
 21 49  1  0
 22 30  1  0
 22 31  1  0
 22 35  2  0
 23 24  1  0
 23 50  1  0
 24 25  2  0
 24 51  1  0
 25 26  1  0
 25 52  1  0
 26 27  2  0
 26 53  1  0
 27 37  1  0
 30 54  1  0
 31 55  1  0
M  END
$$$$
