LIG(A-305)
     RDKit          3D

 29 30  0  0  0  0  0  0  0  0999 V2000
   13.6634   -1.6974   21.4520 Cl  0  0  0  0  0  0  0  0  0  0  0  0
   12.4355   -0.8803   22.3760 C   0  0  0  0  0  0  0  0  0  0  0  0
   12.8105    0.0647   23.3020 C   0  0  0  0  0  0  0  0  0  0  0  0
   11.8326    0.6428   24.0960 C   0  0  0  0  0  0  0  0  0  0  0  0
   10.5006    0.3019   23.9221 C   0  0  0  0  0  0  0  0  0  0  0  0
   11.1125   -1.2292   22.1881 C   0  0  0  0  0  0  0  0  0  0  0  0
   10.1235   -0.6092   22.9471 C   0  0  0  0  0  0  0  0  0  0  0  0
    8.6675   -0.8171   22.6092 C   0  0  1  0  0  0  0  0  0  0  0  0
    8.3065   -0.0501   21.3521 C   0  0  0  0  0  0  0  0  0  0  0  0
    9.0365    0.8218   20.8831 O   0  0  0  0  0  0  0  0  0  0  0  0
    7.1204   -0.4131   20.7812 N   0  0  0  0  0  0  0  0  0  0  0  0
    6.6734    0.1099   19.5512 C   0  0  0  0  0  0  0  0  0  0  0  0
    5.6695    1.0219   19.3272 C   0  0  0  0  0  0  0  0  0  0  0  0
    4.8245    1.8190   20.2682 C   0  0  1  0  0  0  0  0  0  0  0  0
    7.1534   -0.2522   18.2922 C   0  0  0  0  0  0  0  0  0  0  0  0
    6.4844    0.3818   17.3372 N   0  0  0  0  0  0  0  0  0  0  0  0
    5.5714    1.1568   17.9932 N   0  0  0  0  0  0  0  0  0  0  0  0
   13.8466    0.3508   23.4083 H   0  0  0  0  0  0  0  0  0  0  0  0
   12.1096    1.3615   24.8531 H   0  0  0  0  0  0  0  0  0  0  0  0
    9.7477    0.7508   24.5530 H   0  0  0  0  0  0  0  0  0  0  0  0
   10.8467   -1.9784   21.4569 H   0  0  0  0  0  0  0  0  0  0  0  0
    8.4818   -1.8891   22.4466 H   0  0  0  0  0  0  0  0  0  0  0  0
    8.0462   -0.4598   23.4437 H   0  0  0  0  0  0  0  0  0  0  0  0
    6.5444   -1.0785   21.2560 H   0  0  0  0  0  0  0  0  0  0  0  0
    5.4689    2.4628   20.8847 H   0  0  0  0  0  0  0  0  0  0  0  0
    4.1249    2.4435   19.6932 H   0  0  0  0  0  0  0  0  0  0  0  0
    4.2576    1.1371   20.9190 H   0  0  0  0  0  0  0  0  0  0  0  0
    7.9578   -0.9516   18.1187 H   0  0  0  0  0  0  0  0  0  0  0  0
    4.9127    1.7537   17.5462 H   0  0  0  0  0  0  0  0  0  0  0  0
  1  2  1  0
  2  3  2  0
  2  6  1  0
  3  4  1  0
  3 18  1  0
  4  5  2  0
  4 19  1  0
  5  7  1  0
  5 20  1  0
  6  7  2  0
  6 21  1  0
  7  8  1  0
  8  9  1  0
  8 22  1  6
  8 23  1  0
  9 10  2  0
  9 11  1  0
 11 12  1  0
 11 24  1  0
 12 13  2  0
 12 15  1  0
 13 14  1  0
 13 17  1  0
 14 25  1  1
 14 26  1  0
 14 27  1  0
 15 16  2  0
 15 28  1  0
 16 17  1  0
 17 29  1  0
M  END
$$$$
