LIG(A-305)
     RDKit          3D

 23 23  0  0  0  0  0  0  0  0999 V2000
   22.9563  -20.3520   23.2587 N   0  0  1  0  0  0  0  0  0  0  0  0
   23.9155  -18.1381   23.9667 C   0  0  1  0  0  0  0  0  0  0  0  0
   23.0354  -18.8770   22.9487 C   0  0  2  0  0  0  0  0  0  0  0  0
   21.7094  -20.6850   24.0218 C   0  0  1  0  0  0  0  0  0  0  0  0
   21.2883  -22.0969   23.8318 C   0  0  0  0  0  0  0  0  0  0  0  0
   21.3223  -23.1920   24.7027 C   0  0  0  0  0  0  0  0  0  0  0  0
   20.4921  -25.6189   24.4188 C   0  0  1  0  0  0  0  0  0  0  0  0
   20.7112  -24.2269   23.9858 N   0  0  0  0  0  0  0  0  0  0  0  0
   20.3411  -23.7549   22.7558 N   0  0  0  0  0  0  0  0  0  0  0  0
   20.6792  -22.5259   22.6578 N   0  0  0  0  0  0  0  0  0  0  0  0
   22.9593  -20.8654   22.4005 H   0  0  0  0  0  0  0  0  0  0  0  0
   23.7519  -20.6126   23.8058 H   0  0  0  0  0  0  0  0  0  0  0  0
   23.9518  -17.0685   23.7126 H   0  0  0  0  0  0  0  0  0  0  0  0
   23.4925  -18.2612   24.9746 H   0  0  0  0  0  0  0  0  0  0  0  0
   24.9330  -18.5553   23.9426 H   0  0  0  0  0  0  0  0  0  0  0  0
   22.0217  -18.4507   22.9756 H   0  0  0  0  0  0  0  0  0  0  0  0
   23.4623  -18.7447   21.9436 H   0  0  0  0  0  0  0  0  0  0  0  0
   21.8939  -20.5125   25.0924 H   0  0  0  0  0  0  0  0  0  0  0  0
   20.8987  -20.0255   23.6785 H   0  0  0  0  0  0  0  0  0  0  0  0
   21.7286  -23.2298   25.7027 H   0  0  0  0  0  0  0  0  0  0  0  0
   19.8678  -25.6278   25.3244 H   0  0  0  0  0  0  0  0  0  0  0  0
   19.9842  -26.1762   23.6179 H   0  0  0  0  0  0  0  0  0  0  0  0
   21.4611  -26.0917   24.6368 H   0  0  0  0  0  0  0  0  0  0  0  0
  1  3  1  0
  1  4  1  0
  1 11  1  6
  1 12  1  0
  2  3  1  0
  2 13  1  6
  2 14  1  0
  2 15  1  0
  3 16  1  6
  3 17  1  0
  4  5  1  0
  4 18  1  1
  4 19  1  0
  5  6  2  0
  5 10  1  0
  6  8  1  0
  6 20  1  0
  7  8  1  0
  7 21  1  1
  7 22  1  0
  7 23  1  0
  8  9  1  0
  9 10  2  0
M  CHG  1   1   1
M  END
$$$$
