LIG(A-306)
     RDKit          3D

 40 42  0  0  0  0  0  0  0  0999 V2000
    8.8589    1.1702   21.5089 O   0  0  0  0  0  0  0  0  0  0  0  0
    8.7283    0.0290   21.9356 C   0  0  0  0  0  0  0  0  0  0  0  0
    7.7525   -0.9464   21.2752 C   0  0  1  0  0  0  0  0  0  0  0  0
    7.0685   -0.3384   20.1500 N   0  0  0  0  0  0  0  0  0  0  0  0
    5.9448    0.4301   20.1349 C   0  0  0  0  0  0  0  0  0  0  0  0
    5.1115    0.9302   21.1252 C   0  0  0  0  0  0  0  0  0  0  0  0
    4.0827    1.7760   20.7378 C   0  0  0  0  0  0  0  0  0  0  0  0
    3.8883    2.0990   19.3961 C   0  0  0  0  0  0  0  0  0  0  0  0
    4.7157    1.5768   18.4099 C   0  0  0  0  0  0  0  0  0  0  0  0
    5.7614    0.7400   18.7913 C   0  0  0  0  0  0  0  0  0  0  0  0
    6.7699    0.1506   18.0625 N   0  0  0  0  0  0  0  0  0  0  0  0
    7.5491   -0.4897   18.8898 N   0  0  0  0  0  0  0  0  0  0  0  0
    9.4320   -0.4232   22.9960 N   0  0  0  0  0  0  0  0  0  0  0  0
    9.1135   -1.6622   23.7361 C   0  0  1  0  0  0  0  0  0  0  0  0
    8.0428   -1.4653   24.7939 C   0  0  1  0  0  0  0  0  0  0  0  0
   10.5722    0.3428   23.5065 C   0  0  1  0  0  0  0  0  0  0  0  0
   11.8559   -0.4490   23.5887 C   0  0  0  0  0  0  0  0  0  0  0  0
   12.3965   -1.0544   22.4618 C   0  0  0  0  0  0  0  0  0  0  0  0
   13.6030   -1.7345   22.5315 C   0  0  0  0  0  0  0  0  0  0  0  0
   14.2829   -1.8180   23.7271 C   0  0  0  0  0  0  0  0  0  0  0  0
   13.7583   -1.2256   24.8521 C   0  0  0  0  0  0  0  0  0  0  0  0
   12.5519   -0.5465   24.7854 C   0  0  0  0  0  0  0  0  0  0  0  0
    8.3114   -1.8250   20.9207 H   0  0  0  0  0  0  0  0  0  0  0  0
    7.0057   -1.2622   22.0185 H   0  0  0  0  0  0  0  0  0  0  0  0
    5.2589    0.6695   22.1629 H   0  0  0  0  0  0  0  0  0  0  0  0
    3.4232    2.1901   21.4862 H   0  0  0  0  0  0  0  0  0  0  0  0
    3.0836    2.7640   19.1194 H   0  0  0  0  0  0  0  0  0  0  0  0
    4.5514    1.8149   17.3694 H   0  0  0  0  0  0  0  0  0  0  0  0
    8.7618   -2.4181   23.0184 H   0  0  0  0  0  0  0  0  0  0  0  0
   10.0295   -2.0216   24.2278 H   0  0  0  0  0  0  0  0  0  0  0  0
    7.8528   -2.4200   25.3062 H   0  0  0  0  0  0  0  0  0  0  0  0
    8.3837   -0.7181   25.5258 H   0  0  0  0  0  0  0  0  0  0  0  0
    7.1160   -1.1147   24.3164 H   0  0  0  0  0  0  0  0  0  0  0  0
   10.7378    1.2023   22.8403 H   0  0  0  0  0  0  0  0  0  0  0  0
   10.3229    0.7036   24.5153 H   0  0  0  0  0  0  0  0  0  0  0  0
   11.8711   -0.9949   21.5201 H   0  0  0  0  0  0  0  0  0  0  0  0
   14.0108   -2.1998   21.6463 H   0  0  0  0  0  0  0  0  0  0  0  0
   15.2233   -2.3463   23.7806 H   0  0  0  0  0  0  0  0  0  0  0  0
   14.2884   -1.2897   25.7908 H   0  0  0  0  0  0  0  0  0  0  0  0
   12.1484   -0.0876   25.6758 H   0  0  0  0  0  0  0  0  0  0  0  0
  1  2  2  0
  2  3  1  0
  2 13  1  0
  3  4  1  0
  3 23  1  6
  3 24  1  0
  4  5  1  0
  4 12  1  0
  5  6  2  0
  5 10  1  0
  6  7  1  0
  6 25  1  0
  7  8  2  0
  7 26  1  0
  8  9  1  0
  8 27  1  0
  9 10  2  0
  9 28  1  0
 10 11  1  0
 11 12  2  0
 13 14  1  0
 13 16  1  0
 14 15  1  0
 14 29  1  6
 14 30  1  0
 15 31  1  1
 15 32  1  0
 15 33  1  0
 16 17  1  0
 16 34  1  6
 16 35  1  0
 17 18  2  0
 17 22  1  0
 18 19  1  0
 18 36  1  0
 19 20  2  0
 19 37  1  0
 20 21  1  0
 20 38  1  0
 21 22  2  0
 21 39  1  0
 22 40  1  0
M  END
$$$$
