LIG(A-305)
     RDKit          3D

 46 48  0  0  0  0  0  0  0  0999 V2000
    6.7601    1.0467   16.9974 O   0  0  0  0  0  0  0  0  0  0  0  0
    6.1211    0.7438   18.0005 C   0  0  0  0  0  0  0  0  0  0  0  0
    6.3591   -0.4352   18.7645 C   0  0  0  0  0  0  0  0  0  0  0  0
    5.1802    1.6058   18.5045 N   0  0  0  0  0  0  0  0  0  0  0  0
    4.5143    1.4259   19.7086 C   0  0  0  0  0  0  0  0  0  0  0  0
    4.7983    0.2939   20.4906 C   0  0  0  0  0  0  0  0  0  0  0  0
    4.1524    0.1360   21.7197 C   0  0  0  0  0  0  0  0  0  0  0  0
    3.2035    1.0541   22.1307 C   0  0  0  0  0  0  0  0  0  0  0  0
    2.8965    2.1391   21.3387 C   0  0  0  0  0  0  0  0  0  0  0  0
    3.5524    2.3420   20.1346 C   0  0  0  0  0  0  0  0  0  0  0  0
    5.7432   -0.6772   19.9495 C   0  0  0  0  0  0  0  0  0  0  0  0
    5.9272   -1.9982   20.6076 C   0  0  0  0  0  0  0  0  0  0  0  0
    5.3231   -2.9741   20.1926 O   0  0  0  0  0  0  0  0  0  0  0  0
    6.7933   -2.1112   21.6835 N   0  0  0  0  0  0  0  0  0  0  0  0
    6.9643   -3.3702   22.3925 C   0  0  1  0  0  0  0  0  0  0  0  0
    7.6474   -1.0022   22.1084 C   0  0  1  0  0  0  0  0  0  0  0  0
    9.0693   -1.2183   21.6713 C   0  0  1  0  0  0  0  0  0  0  0  0
    9.8404   -1.2793   22.8782 O   0  0  0  0  0  0  0  0  0  0  0  0
   11.1205   -0.8104   22.8261 C   0  0  0  0  0  0  0  0  0  0  0  0
   11.3336    0.4756   23.3630 C   0  0  0  0  0  0  0  0  0  0  0  0
   10.2077    1.1157   23.8081 O   0  0  0  0  0  0  0  0  0  0  0  0
   10.3678    2.3377   24.5271 C   0  0  1  0  0  0  0  0  0  0  0  0
   12.1764   -1.5155   22.2750 C   0  0  0  0  0  0  0  0  0  0  0  0
   13.4364   -0.9456   22.2499 C   0  0  0  0  0  0  0  0  0  0  0  0
   13.6525    0.3054   22.7948 C   0  0  0  0  0  0  0  0  0  0  0  0
   12.6106    1.0185   23.3619 C   0  0  0  0  0  0  0  0  0  0  0  0
    7.0581   -1.1661   18.3851 H   0  0  0  0  0  0  0  0  0  0  0  0
    4.9590    2.4196   17.9666 H   0  0  0  0  0  0  0  0  0  0  0  0
    4.3952   -0.7061   22.3508 H   0  0  0  0  0  0  0  0  0  0  0  0
    2.7006    0.9200   23.0771 H   0  0  0  0  0  0  0  0  0  0  0  0
    2.1379    2.8377   21.6591 H   0  0  0  0  0  0  0  0  0  0  0  0
    3.3198    3.2055   19.5290 H   0  0  0  0  0  0  0  0  0  0  0  0
    7.6927   -3.2375   23.2059 H   0  0  0  0  0  0  0  0  0  0  0  0
    5.9989   -3.6880   22.8132 H   0  0  0  0  0  0  0  0  0  0  0  0
    7.3302   -4.1373   21.6943 H   0  0  0  0  0  0  0  0  0  0  0  0
    7.2724   -0.0687   21.6636 H   0  0  0  0  0  0  0  0  0  0  0  0
    7.6163   -0.9242   23.2052 H   0  0  0  0  0  0  0  0  0  0  0  0
    9.1593   -2.1604   21.1105 H   0  0  0  0  0  0  0  0  0  0  0  0
    9.4082   -0.3827   21.0413 H   0  0  0  0  0  0  0  0  0  0  0  0
    9.3799    2.7266   24.8147 H   0  0  0  0  0  0  0  0  0  0  0  0
   10.9673    2.1552   25.4311 H   0  0  0  0  0  0  0  0  0  0  0  0
   10.8801    3.0735   23.8897 H   0  0  0  0  0  0  0  0  0  0  0  0
   12.0177   -2.5031   21.8678 H   0  0  0  0  0  0  0  0  0  0  0  0
   14.2583   -1.4831   21.8004 H   0  0  0  0  0  0  0  0  0  0  0  0
   14.6449    0.7313   22.7781 H   0  0  0  0  0  0  0  0  0  0  0  0
   12.7900    1.9893   23.7999 H   0  0  0  0  0  0  0  0  0  0  0  0
  1  2  2  0
  2  3  1  0
  2  4  1  0
  3 11  2  0
  3 27  1  0
  4  5  1  0
  4 28  1  0
  5  6  2  0
  5 10  1  0
  6  7  1  0
  6 11  1  0
  7  8  2  0
  7 29  1  0
  8  9  1  0
  8 30  1  0
  9 10  2  0
  9 31  1  0
 10 32  1  0
 11 12  1  0
 12 13  2  0
 12 14  1  0
 14 15  1  0
 14 16  1  0
 15 33  1  1
 15 34  1  0
 15 35  1  0
 16 17  1  0
 16 36  1  6
 16 37  1  0
 17 18  1  0
 17 38  1  6
 17 39  1  0
 18 19  1  0
 19 20  2  0
 19 23  1  0
 20 21  1  0
 20 26  1  0
 21 22  1  0
 22 40  1  1
 22 41  1  0
 22 42  1  0
 23 24  2  0
 23 43  1  0
 24 25  1  0
 24 44  1  0
 25 26  2  0
 25 45  1  0
 26 46  1  0
M  END
$$$$
