LIG(A-306)
     RDKit          3D

 40 43  0  0  1  0  0  0  0  0999 V2000
    9.3688    1.1215   21.2889 O   0  0  0  0  0  0  0  0  0  0  0  0
    8.8729    0.1034   21.7749 C   0  0  0  0  0  0  0  0  0  0  0  0
    7.7590   -0.4888   21.2769 N   0  0  0  0  0  0  0  0  0  0  0  0
    6.9799   -0.0659   20.1730 C   0  0  0  0  0  0  0  0  0  0  0  0
    5.7888    0.6849   20.4280 C   0  0  0  0  0  0  0  0  0  0  0  0
    5.2878    0.9519   21.7300 C   0  0  0  0  0  0  0  0  0  0  0  0
    4.1697    1.7157   21.9100 C   0  0  0  0  0  0  0  0  0  0  0  0
    3.4936    2.2506   20.8190 C   0  0  0  0  0  0  0  0  0  0  0  0
    3.9346    2.0226   19.5460 C   0  0  0  0  0  0  0  0  0  0  0  0
    5.0887    1.2328   19.3140 C   0  0  0  0  0  0  0  0  0  0  0  0
    5.6097    0.9839   18.0180 C   0  0  0  0  0  0  0  0  0  0  0  0
    6.7068    0.2771   17.7810 N   0  0  0  0  0  0  0  0  0  0  0  0
    7.3589   -0.2308   18.8399 C   0  0  0  0  0  0  0  0  0  0  0  0
    9.4881   -0.6075   22.9829 C   0  0  1  0  0  0  0  0  0  0  0  0
   10.9880   -0.3673   23.0259 C   0  0  0  0  0  0  0  0  0  0  0  0
   11.8321   -1.1091   22.1999 C   0  0  0  0  0  0  0  0  0  0  0  0
   13.1641   -0.7639   22.0849 C   0  0  0  0  0  0  0  0  0  0  0  0
   14.1752   -1.6538   20.9868 Cl  0  0  0  0  0  0  0  0  0  0  0  0
    8.8230   -0.1886   24.3049 C   0  0  1  0  0  0  0  0  0  0  0  0
    9.0938    1.2465   24.4919 N   0  0  0  0  0  0  0  0  0  0  0  0
   10.6228    1.5357   24.9749 S   0  0  2  0  0  0  0  0  0  0  0  0
   10.8039    0.9217   26.2569 O   0  0  0  0  0  0  0  0  0  0  0  0
   10.8786    2.9377   24.8389 O   0  0  0  0  0  0  0  0  0  0  0  0
   11.5629    0.6618   23.7819 C   0  0  0  0  0  0  0  0  0  0  0  0
   12.9038    0.9960   23.6579 C   0  0  0  0  0  0  0  0  0  0  0  0
   13.7049    0.2882   22.7848 C   0  0  0  0  0  0  0  0  0  0  0  0
    7.4530   -1.3190   21.7428 H   0  0  0  0  0  0  0  0  0  0  0  0
    5.7984    0.5450   22.5903 H   0  0  0  0  0  0  0  0  0  0  0  0
    3.8073    1.9060   22.9094 H   0  0  0  0  0  0  0  0  0  0  0  0
    2.6111    2.8522   20.9794 H   0  0  0  0  0  0  0  0  0  0  0  0
    3.3995    2.4477   18.7097 H   0  0  0  0  0  0  0  0  0  0  0  0
    5.0800    1.3956   17.1717 H   0  0  0  0  0  0  0  0  0  0  0  0
    8.2472   -0.8132   18.6442 H   0  0  0  0  0  0  0  0  0  0  0  0
    9.3233   -1.6875   22.8550 H   0  0  0  0  0  0  0  0  0  0  0  0
   11.4438   -1.9538   21.6501 H   0  0  0  0  0  0  0  0  0  0  0  0
    7.7383   -0.3640   24.2534 H   0  0  0  0  0  0  0  0  0  0  0  0
    9.2484   -0.7645   25.1400 H   0  0  0  0  0  0  0  0  0  0  0  0
    8.6497    1.9031   23.8823 H   0  0  0  0  0  0  0  0  0  0  0  0
   13.3182    1.8052   24.2409 H   0  0  0  0  0  0  0  0  0  0  0  0
   14.7426    0.5572   22.6535 H   0  0  0  0  0  0  0  0  0  0  0  0
  1  2  2  0
  2  3  1  0
  2 14  1  0
  3  4  1  0
  3 27  1  0
  4  5  2  0
  4 13  1  0
  5  6  1  0
  5 10  1  0
  6  7  2  0
  6 28  1  0
  7  8  1  0
  7 29  1  0
  8  9  2  0
  8 30  1  0
  9 10  1  0
  9 31  1  0
 10 11  2  0
 11 12  1  0
 11 32  1  0
 12 13  2  0
 13 33  1  0
 14 15  1  0
 14 19  1  0
 14 34  1  6
 15 16  2  0
 15 24  1  0
 16 17  1  0
 16 35  1  0
 17 18  1  0
 17 26  2  0
 19 20  1  0
 19 36  1  6
 19 37  1  0
 21 20  1  6
 20 38  1  0
 21 22  2  0
 21 23  2  0
 21 24  1  0
 24 25  2  0
 25 26  1  0
 25 39  1  0
 26 40  1  0
M  END
$$$$
