LIG(A-305)
     RDKit          3D

 35 37  0  0  1  0  0  0  0  0999 V2000
    9.7872    0.8849   21.2281 O   0  0  0  0  0  0  0  0  0  0  0  0
    9.2872   -0.1721   21.6042 C   0  0  0  0  0  0  0  0  0  0  0  0
    8.1161   -0.6570   21.1553 N   0  0  0  0  0  0  0  0  0  0  0  0
    7.2911   -0.1000   20.1523 C   0  0  0  0  0  0  0  0  0  0  0  0
    7.6760   -0.0771   18.8103 C   0  0  0  0  0  0  0  0  0  0  0  0
    6.9139    0.4319   17.8363 N   0  0  0  0  0  0  0  0  0  0  0  0
    5.7230    0.9310   18.1864 C   0  0  0  0  0  0  0  0  0  0  0  0
    5.2511    0.9501   19.4834 C   0  0  0  0  0  0  0  0  0  0  0  0
    6.0381    0.4391   20.5064 C   0  0  0  0  0  0  0  0  0  0  0  0
    5.5792    0.5142   21.9424 C   0  0  1  0  0  0  0  0  0  0  0  0
    9.9662   -1.0731   22.6102 C   0  0  1  0  0  0  0  0  0  0  0  0
   11.4572   -0.7572   22.8870 C   0  0  1  0  0  0  0  0  0  0  0  0
   11.8504    0.3608   23.8580 C   0  0  1  0  0  0  0  0  0  0  0  0
   12.6654   -0.3682   24.9139 C   0  0  1  0  0  0  0  0  0  0  0  0
   13.4423   -1.4243   24.1539 C   0  0  1  0  0  0  0  0  0  0  0  0
   12.4811   -1.8462   23.0430 C   0  0  2  0  0  0  0  0  0  0  0  0
   12.4471   -1.0033   21.7960 C   0  0  2  0  0  0  0  0  0  0  0  0
    7.7939   -1.5044   21.5773 H   0  0  0  0  0  0  0  0  0  0  0  0
    8.6376   -0.4914   18.5455 H   0  0  0  0  0  0  0  0  0  0  0  0
    5.0951    1.3424   17.4099 H   0  0  0  0  0  0  0  0  0  0  0  0
    4.2758    1.3600   19.7010 H   0  0  0  0  0  0  0  0  0  0  0  0
    6.2842    1.1288   22.5215 H   0  0  0  0  0  0  0  0  0  0  0  0
    4.5778    0.9675   21.9840 H   0  0  0  0  0  0  0  0  0  0  0  0
    5.5408   -0.4993   22.3684 H   0  0  0  0  0  0  0  0  0  0  0  0
    9.4199   -0.9915   23.5615 H   0  0  0  0  0  0  0  0  0  0  0  0
    9.9019   -2.1062   22.2378 H   0  0  0  0  0  0  0  0  0  0  0  0
   12.4555    1.1279   23.3524 H   0  0  0  0  0  0  0  0  0  0  0  0
   10.9595    0.8299   24.3012 H   0  0  0  0  0  0  0  0  0  0  0  0
   13.3518    0.3268   25.4198 H   0  0  0  0  0  0  0  0  0  0  0  0
   12.0035   -0.8361   25.6576 H   0  0  0  0  0  0  0  0  0  0  0  0
   14.3683   -1.0046   23.7339 H   0  0  0  0  0  0  0  0  0  0  0  0
   13.6881   -2.2760   24.8052 H   0  0  0  0  0  0  0  0  0  0  0  0
   12.1616   -2.8975   22.9902 H   0  0  0  0  0  0  0  0  0  0  0  0
   13.2469   -0.2728   21.6044 H   0  0  0  0  0  0  0  0  0  0  0  0
   12.1171   -1.4439   20.8436 H   0  0  0  0  0  0  0  0  0  0  0  0
  1  2  2  0
  2  3  1  0
  2 11  1  0
  3  4  1  0
  3 18  1  0
  4  5  2  0
  4  9  1  0
  5  6  1  0
  5 19  1  0
  6  7  2  0
  7  8  1  0
  7 20  1  0
  8  9  2  0
  8 21  1  0
  9 10  1  0
 10 22  1  1
 10 23  1  0
 10 24  1  0
 11 12  1  0
 11 25  1  1
 11 26  1  0
 12 13  1  0
 12 16  1  1
 12 17  1  0
 13 14  1  0
 13 27  1  6
 13 28  1  0
 14 15  1  0
 14 29  1  1
 14 30  1  0
 15 16  1  0
 15 31  1  6
 15 32  1  0
 16 17  1  0
 16 33  1  6
 17 34  1  6
 17 35  1  0
M  END
$$$$
