LIG(A-306)
     RDKit          3D

 40 42  0  0  0  0  0  0  0  0999 V2000
    8.8597    1.1699   21.5084 O   0  0  0  0  0  0  0  0  0  0  0  0
    8.7281    0.0291   21.9357 C   0  0  0  0  0  0  0  0  0  0  0  0
    7.7527   -0.9457   21.2748 C   0  0  1  0  0  0  0  0  0  0  0  0
    7.0690   -0.3387   20.1503 N   0  0  0  0  0  0  0  0  0  0  0  0
    5.9444    0.4297   20.1356 C   0  0  0  0  0  0  0  0  0  0  0  0
    5.1113    0.9300   21.1253 C   0  0  0  0  0  0  0  0  0  0  0  0
    4.0826    1.7759   20.7374 C   0  0  0  0  0  0  0  0  0  0  0  0
    3.8885    2.0986   19.3966 C   0  0  0  0  0  0  0  0  0  0  0  0
    4.7164    1.5761   18.4104 C   0  0  0  0  0  0  0  0  0  0  0  0
    5.7619    0.7397   18.7912 C   0  0  0  0  0  0  0  0  0  0  0  0
    6.7700    0.1508   18.0622 N   0  0  0  0  0  0  0  0  0  0  0  0
    7.5493   -0.4897   18.8896 N   0  0  0  0  0  0  0  0  0  0  0  0
    9.4311   -0.4237   22.9961 N   0  0  0  0  0  0  0  0  0  0  0  0
    9.1131   -1.6624   23.7370 C   0  0  1  0  0  0  0  0  0  0  0  0
    8.0436   -1.4653   24.7933 C   0  0  1  0  0  0  0  0  0  0  0  0
   10.5720    0.3424   23.5067 C   0  0  1  0  0  0  0  0  0  0  0  0
   11.8560   -0.4495   23.5889 C   0  0  0  0  0  0  0  0  0  0  0  0
   12.3966   -1.0539   22.4616 C   0  0  0  0  0  0  0  0  0  0  0  0
   13.6021   -1.7343   22.5319 C   0  0  0  0  0  0  0  0  0  0  0  0
   14.2823   -1.8188   23.7268 C   0  0  0  0  0  0  0  0  0  0  0  0
   13.7583   -1.2259   24.8517 C   0  0  0  0  0  0  0  0  0  0  0  0
   12.5518   -0.5464   24.7855 C   0  0  0  0  0  0  0  0  0  0  0  0
    8.3117   -1.8243   20.9203 H   0  0  0  0  0  0  0  0  0  0  0  0
    7.0057   -1.2617   22.0180 H   0  0  0  0  0  0  0  0  0  0  0  0
    5.2586    0.6698   22.1630 H   0  0  0  0  0  0  0  0  0  0  0  0
    3.4230    2.1901   21.4856 H   0  0  0  0  0  0  0  0  0  0  0  0
    3.0838    2.7636   19.1195 H   0  0  0  0  0  0  0  0  0  0  0  0
    4.5521    1.8141   17.3699 H   0  0  0  0  0  0  0  0  0  0  0  0
    8.7617   -2.4189   23.0198 H   0  0  0  0  0  0  0  0  0  0  0  0
   10.0291   -2.0211   24.2289 H   0  0  0  0  0  0  0  0  0  0  0  0
    7.8537   -2.4197   25.3062 H   0  0  0  0  0  0  0  0  0  0  0  0
    8.3841   -0.7175   25.5246 H   0  0  0  0  0  0  0  0  0  0  0  0
    7.1166   -1.1152   24.3155 H   0  0  0  0  0  0  0  0  0  0  0  0
   10.7377    1.2018   22.8404 H   0  0  0  0  0  0  0  0  0  0  0  0
   10.3228    0.7033   24.5155 H   0  0  0  0  0  0  0  0  0  0  0  0
   11.8718   -0.9931   21.5197 H   0  0  0  0  0  0  0  0  0  0  0  0
   14.0095   -2.1999   21.6466 H   0  0  0  0  0  0  0  0  0  0  0  0
   15.2223   -2.3479   23.7800 H   0  0  0  0  0  0  0  0  0  0  0  0
   14.2887   -1.2898   25.7902 H   0  0  0  0  0  0  0  0  0  0  0  0
   12.1486   -0.0870   25.6758 H   0  0  0  0  0  0  0  0  0  0  0  0
  1  2  2  0
  2  3  1  0
  2 13  1  0
  3  4  1  0
  3 23  1  6
  3 24  1  0
  4  5  1  0
  4 12  1  0
  5  6  2  0
  5 10  1  0
  6  7  1  0
  6 25  1  0
  7  8  2  0
  7 26  1  0
  8  9  1  0
  8 27  1  0
  9 10  2  0
  9 28  1  0
 10 11  1  0
 11 12  2  0
 13 14  1  0
 13 16  1  0
 14 15  1  0
 14 29  1  6
 14 30  1  0
 15 31  1  1
 15 32  1  0
 15 33  1  0
 16 17  1  0
 16 34  1  6
 16 35  1  0
 17 18  2  0
 17 22  1  0
 18 19  1  0
 18 36  1  0
 19 20  2  0
 19 37  1  0
 20 21  1  0
 20 38  1  0
 21 22  2  0
 21 39  1  0
 22 40  1  0
M  END
$$$$
