LIG(A-306)
     RDKit          3D

 50 53  0  0  1  0  0  0  0  0999 V2000
    9.2794    1.0478   21.1374 O   0  0  0  0  0  0  0  0  0  0  0  0
    8.7354    0.0973   21.6859 C   0  0  0  0  0  0  0  0  0  0  0  0
    9.3935   -0.5832   22.9045 C   0  0  1  0  0  0  0  0  0  0  0  0
    8.5896    0.0677   24.0610 C   0  0  1  0  0  0  0  0  0  0  0  0
    9.4595    0.8376   25.0405 C   0  0  1  0  0  0  0  0  0  0  0  0
   10.5240    1.5800   24.4222 O   0  0  0  0  0  0  0  0  0  0  0  0
    9.1381   -2.1060   22.8510 C   0  0  1  0  0  0  0  0  0  0  0  0
    9.8965   -2.8705   23.8270 N   0  0  0  0  0  0  0  0  0  0  0  0
    9.3180   -3.6382   24.7547 C   0  0  0  0  0  0  0  0  0  0  0  0
   10.2535   -4.4319   25.5959 C   0  0  0  0  0  0  0  0  0  0  0  0
    9.8341   -5.2442   26.5268 C   0  0  0  0  0  0  0  0  0  0  0  0
    8.0890   -3.6854   24.8935 O   0  0  0  0  0  0  0  0  0  0  0  0
   10.8969   -0.2984   22.9526 C   0  0  0  0  0  0  0  0  0  0  0  0
   11.3681    0.7823   23.6935 C   0  0  0  0  0  0  0  0  0  0  0  0
   12.7133    1.1265   23.7062 C   0  0  0  0  0  0  0  0  0  0  0  0
   13.6063    0.3958   22.9431 C   0  0  0  0  0  0  0  0  0  0  0  0
   11.8129   -1.0440   22.2106 C   0  0  0  0  0  0  0  0  0  0  0  0
   13.1430   -0.6670   22.1962 C   0  0  0  0  0  0  0  0  0  0  0  0
   14.2383   -1.4888   21.1147 Cl  0  0  0  0  0  0  0  0  0  0  0  0
    7.5246   -0.3715   21.2808 N   0  0  0  0  0  0  0  0  0  0  0  0
    6.7709    0.0993   20.1772 C   0  0  0  0  0  0  0  0  0  0  0  0
    5.6538    0.9659   20.4125 C   0  0  0  0  0  0  0  0  0  0  0  0
    5.1716    1.3032   21.7037 C   0  0  0  0  0  0  0  0  0  0  0  0
    4.0836    2.1164   21.8593 C   0  0  0  0  0  0  0  0  0  0  0  0
    3.4278    2.6454   20.7514 C   0  0  0  0  0  0  0  0  0  0  0  0
    3.8619    2.3622   19.4879 C   0  0  0  0  0  0  0  0  0  0  0  0
    4.9769    1.5107   19.2815 C   0  0  0  0  0  0  0  0  0  0  0  0
    5.4452    1.1464   17.9945 C   0  0  0  0  0  0  0  0  0  0  0  0
    6.4712    0.3367   17.7779 N   0  0  0  0  0  0  0  0  0  0  0  0
    7.1030   -0.1656   18.8486 C   0  0  0  0  0  0  0  0  0  0  0  0
    7.8543    0.7615   23.6275 H   0  0  0  0  0  0  0  0  0  0  0  0
    8.0642   -0.7269   24.6110 H   0  0  0  0  0  0  0  0  0  0  0  0
    8.8195    1.5439   25.5897 H   0  0  0  0  0  0  0  0  0  0  0  0
    9.9035    0.1200   25.7462 H   0  0  0  0  0  0  0  0  0  0  0  0
    8.0673   -2.2830   23.0303 H   0  0  0  0  0  0  0  0  0  0  0  0
    9.4061   -2.4660   21.8466 H   0  0  0  0  0  0  0  0  0  0  0  0
   10.8949   -2.8195   23.8032 H   0  0  0  0  0  0  0  0  0  0  0  0
   11.3162   -4.3322   25.4305 H   0  0  0  0  0  0  0  0  0  0  0  0
   10.5456   -5.8032   27.1166 H   0  0  0  0  0  0  0  0  0  0  0  0
    8.7754   -5.3578   26.7076 H   0  0  0  0  0  0  0  0  0  0  0  0
   13.0588    1.9559   24.3055 H   0  0  0  0  0  0  0  0  0  0  0  0
   14.6547    0.6548   22.9324 H   0  0  0  0  0  0  0  0  0  0  0  0
   11.4858   -1.9086   21.6520 H   0  0  0  0  0  0  0  0  0  0  0  0
    7.1285   -1.1200   21.8127 H   0  0  0  0  0  0  0  0  0  0  0  0
    5.6717    0.9113   22.5770 H   0  0  0  0  0  0  0  0  0  0  0  0
    3.7294    2.3508   22.8522 H   0  0  0  0  0  0  0  0  0  0  0  0
    2.5689    3.2849   20.8920 H   0  0  0  0  0  0  0  0  0  0  0  0
    3.3513    2.7906   18.6381 H   0  0  0  0  0  0  0  0  0  0  0  0
    4.9332    1.5548   17.1358 H   0  0  0  0  0  0  0  0  0  0  0  0
    7.9361   -0.8285   18.6678 H   0  0  0  0  0  0  0  0  0  0  0  0
  1  2  2  0
  3  2  1  6
  2 20  1  0
  3  4  1  0
  3  7  1  0
  3 13  1  0
  4  5  1  0
  4 31  1  6
  4 32  1  0
  5  6  1  0
  5 33  1  1
  5 34  1  0
  6 14  1  0
  7  8  1  0
  7 35  1  1
  7 36  1  0
  8  9  1  0
  8 37  1  0
  9 10  1  0
  9 12  2  0
 10 11  2  0
 10 38  1  0
 11 39  1  0
 11 40  1  0
 13 14  2  0
 13 17  1  0
 14 15  1  0
 15 16  2  0
 15 41  1  0
 16 18  1  0
 16 42  1  0
 17 18  2  0
 17 43  1  0
 18 19  1  0
 20 21  1  0
 20 44  1  0
 21 22  2  0
 21 30  1  0
 22 23  1  0
 22 27  1  0
 23 24  2  0
 23 45  1  0
 24 25  1  0
 24 46  1  0
 25 26  2  0
 25 47  1  0
 26 27  1  0
 26 48  1  0
 27 28  2  0
 28 29  1  0
 28 49  1  0
 29 30  2  0
 30 50  1  0
M  END
$$$$
