LIG(A-306)
     RDKit          3D

 50 54  0  0  1  0  0  0  0  0999 V2000
   -8.1091    1.8653  -25.8828 O   0  0  0  0  0  0  0  0  0  0  0  0
   -7.5957    0.5836  -25.5030 S   0  0  2  0  0  0  0  0  0  0  0  0
   -6.3849    0.4930  -24.7469 O   0  0  0  0  0  0  0  0  0  0  0  0
   -7.4969   -0.3687  -26.9045 C   0  0  0  0  0  0  0  0  0  0  0  0
   -6.7920   -1.5058  -27.0794 N   0  0  0  0  0  0  0  0  0  0  0  0
   -7.0468   -1.9608  -28.3407 C   0  0  0  0  0  0  0  0  0  0  0  0
   -7.9043   -1.0657  -28.8934 C   0  0  0  0  0  0  0  0  0  0  0  0
   -8.1817   -0.0642  -27.9905 N   0  0  0  0  0  0  0  0  0  0  0  0
   -8.7772   -0.1096  -24.6168 N   0  0  0  0  0  0  0  0  0  0  0  0
  -10.1552    0.1474  -25.0601 C   0  0  1  0  0  0  0  0  0  0  0  0
   -8.5378   -1.4591  -24.0739 C   0  0  1  0  0  0  0  0  0  0  0  0
   -9.3484   -1.5956  -22.7843 C   0  0  2  0  0  0  0  0  0  0  0  0
  -10.8090   -1.2821  -23.0452 C   0  0  0  0  0  0  0  0  0  0  0  0
  -11.1702   -0.4086  -24.0856 C   0  0  0  0  0  0  0  0  0  0  0  0
  -12.5178   -0.1046  -24.2788 C   0  0  0  0  0  0  0  0  0  0  0  0
  -13.4991   -0.6739  -23.4874 C   0  0  0  0  0  0  0  0  0  0  0  0
  -11.8043   -1.8544  -22.2549 C   0  0  0  0  0  0  0  0  0  0  0  0
  -13.1289   -1.5474  -22.4910 C   0  0  0  0  0  0  0  0  0  0  0  0
  -14.3594   -2.2938  -21.5100 Cl  0  0  0  0  0  0  0  0  0  0  0  0
   -8.8346   -0.6246  -21.7195 C   0  0  0  0  0  0  0  0  0  0  0  0
   -9.0917    0.5762  -21.7520 O   0  0  0  0  0  0  0  0  0  0  0  0
   -8.0716   -1.1928  -20.7635 N   0  0  0  0  0  0  0  0  0  0  0  0
   -7.1640   -0.6393  -19.8358 C   0  0  0  0  0  0  0  0  0  0  0  0
   -6.2250    0.3797  -20.2145 C   0  0  0  0  0  0  0  0  0  0  0  0
   -5.7654    0.5713  -21.5424 C   0  0  0  0  0  0  0  0  0  0  0  0
   -4.7506    1.4447  -21.8207 C   0  0  0  0  0  0  0  0  0  0  0  0
   -4.1534    2.1817  -20.8069 C   0  0  0  0  0  0  0  0  0  0  0  0
   -4.5660    2.0432  -19.5129 C   0  0  0  0  0  0  0  0  0  0  0  0
   -5.6018    1.1356  -19.1787 C   0  0  0  0  0  0  0  0  0  0  0  0
   -5.9627    0.8487  -17.8422 C   0  0  0  0  0  0  0  0  0  0  0  0
   -6.8085   -0.1014  -17.4894 N   0  0  0  0  0  0  0  0  0  0  0  0
   -7.3706   -0.8226  -18.4672 C   0  0  0  0  0  0  0  0  0  0  0  0
   -6.1891   -1.9364  -26.3966 H   0  0  0  0  0  0  0  0  0  0  0  0
   -6.6477   -2.8509  -28.8041 H   0  0  0  0  0  0  0  0  0  0  0  0
   -8.3089   -1.1296  -29.8927 H   0  0  0  0  0  0  0  0  0  0  0  0
  -10.3042    1.2336  -25.1488 H   0  0  0  0  0  0  0  0  0  0  0  0
  -10.3077   -0.3251  -26.0416 H   0  0  0  0  0  0  0  0  0  0  0  0
   -8.8617   -2.2178  -24.8014 H   0  0  0  0  0  0  0  0  0  0  0  0
   -7.4672   -1.5911  -23.8585 H   0  0  0  0  0  0  0  0  0  0  0  0
   -9.2582   -2.6253  -22.4079 H   0  0  0  0  0  0  0  0  0  0  0  0
  -12.7996    0.5869  -25.0591 H   0  0  0  0  0  0  0  0  0  0  0  0
  -14.5401   -0.4364  -23.6493 H   0  0  0  0  0  0  0  0  0  0  0  0
  -11.5397   -2.5362  -21.4601 H   0  0  0  0  0  0  0  0  0  0  0  0
   -8.1664   -2.1863  -20.7008 H   0  0  0  0  0  0  0  0  0  0  0  0
   -6.2247    0.0176  -22.3480 H   0  0  0  0  0  0  0  0  0  0  0  0
   -4.4105    1.5624  -22.8390 H   0  0  0  0  0  0  0  0  0  0  0  0
   -3.3559    2.8703  -21.0439 H   0  0  0  0  0  0  0  0  0  0  0  0
   -4.0986    2.6308  -18.7366 H   0  0  0  0  0  0  0  0  0  0  0  0
   -5.5178    1.4453  -17.0595 H   0  0  0  0  0  0  0  0  0  0  0  0
   -8.0423   -1.6151  -18.1716 H   0  0  0  0  0  0  0  0  0  0  0  0
  1  2  2  0
  2  3  2  0
  2  4  1  0
  2  9  1  1
  4  5  1  0
  4  8  2  0
  5  6  1  0
  5 33  1  0
  6  7  2  0
  6 34  1  0
  7  8  1  0
  7 35  1  0
  9 10  1  0
  9 11  1  0
 10 14  1  0
 10 36  1  6
 10 37  1  0
 11 12  1  0
 11 38  1  6
 11 39  1  0
 12 13  1  0
 12 20  1  0
 12 40  1  1
 13 14  2  0
 13 17  1  0
 14 15  1  0
 15 16  2  0
 15 41  1  0
 16 18  1  0
 16 42  1  0
 17 18  2  0
 17 43  1  0
 18 19  1  0
 20 21  2  0
 20 22  1  0
 22 23  1  0
 22 44  1  0
 23 24  2  0
 23 32  1  0
 24 25  1  0
 24 29  1  0
 25 26  2  0
 25 45  1  0
 26 27  1  0
 26 46  1  0
 27 28  2  0
 27 47  1  0
 28 29  1  0
 28 48  1  0
 29 30  2  0
 30 31  1  0
 30 49  1  0
 31 32  2  0
 32 50  1  0
M  END
$$$$
