LIG(A-305)
     RDKit          3D

 35 37  0  0  1  0  0  0  0  0999 V2000
    9.6768    1.1608   21.1861 O   0  0  0  0  0  0  0  0  0  0  0  0
    9.5296   -0.0362   21.4311 C   0  0  0  0  0  0  0  0  0  0  0  0
   10.5246   -0.8083   22.2691 C   0  0  2  0  0  0  0  0  0  0  0  0
   11.0807   -0.0903   23.4920 C   0  0  1  0  0  0  0  0  0  0  0  0
   11.3887   -0.9073   24.7510 C   0  0  1  0  0  0  0  0  0  0  0  0
   12.8356   -1.4044   24.8270 C   0  0  1  0  0  0  0  0  0  0  0  0
   13.2215   -2.1745   23.5790 C   0  0  1  0  0  0  0  0  0  0  0  0
   13.0895   -1.3145   22.3160 C   0  0  1  0  0  0  0  0  0  0  0  0
   11.9537   -0.2784   22.2900 C   0  0  1  0  0  0  0  0  0  0  0  0
    8.4955   -0.7691   20.9732 N   0  0  0  0  0  0  0  0  0  0  0  0
    7.5156   -0.2430   20.0852 C   0  0  0  0  0  0  0  0  0  0  0  0
    6.2776    0.2091   20.5962 C   0  0  0  0  0  0  0  0  0  0  0  0
    5.9147    0.0542   22.0543 C   0  0  1  0  0  0  0  0  0  0  0  0
    7.7485   -0.1061   18.7132 C   0  0  0  0  0  0  0  0  0  0  0  0
    6.8705    0.4290   17.8582 N   0  0  0  0  0  0  0  0  0  0  0  0
    5.7066    0.8561   18.3592 C   0  0  0  0  0  0  0  0  0  0  0  0
    5.3797    0.7822   19.6973 C   0  0  0  0  0  0  0  0  0  0  0  0
   10.3900   -1.8976   22.3418 H   0  0  0  0  0  0  0  0  0  0  0  0
   10.7008    0.9275   23.6649 H   0  0  0  0  0  0  0  0  0  0  0  0
   11.1921   -0.2764   25.6305 H   0  0  0  0  0  0  0  0  0  0  0  0
   10.7204   -1.7808   24.7697 H   0  0  0  0  0  0  0  0  0  0  0  0
   13.5062   -0.5393   24.9355 H   0  0  0  0  0  0  0  0  0  0  0  0
   12.9425   -2.0631   25.7015 H   0  0  0  0  0  0  0  0  0  0  0  0
   14.2652   -2.5084   23.6751 H   0  0  0  0  0  0  0  0  0  0  0  0
   12.5635   -3.0509   23.4836 H   0  0  0  0  0  0  0  0  0  0  0  0
   14.0369   -0.7712   22.1845 H   0  0  0  0  0  0  0  0  0  0  0  0
   12.9364   -1.9956   21.4658 H   0  0  0  0  0  0  0  0  0  0  0  0
   12.1415    0.6167   21.6790 H   0  0  0  0  0  0  0  0  0  0  0  0
    8.4135   -1.7208   21.2692 H   0  0  0  0  0  0  0  0  0  0  0  0
    6.6487    0.5897   22.6743 H   0  0  0  0  0  0  0  0  0  0  0  0
    4.9125    0.4727   22.2290 H   0  0  0  0  0  0  0  0  0  0  0  0
    5.9182   -1.0128   22.3215 H   0  0  0  0  0  0  0  0  0  0  0  0
    8.6932   -0.4529   18.3209 H   0  0  0  0  0  0  0  0  0  0  0  0
    4.9834    1.2820   17.6795 H   0  0  0  0  0  0  0  0  0  0  0  0
    4.4327    1.1664   20.0466 H   0  0  0  0  0  0  0  0  0  0  0  0
  1  2  2  0
  2  3  1  0
  2 10  1  0
  3  4  1  0
  3  9  1  0
  3 18  1  1
  4  5  1  0
  4  9  1  0
  4 19  1  1
  5  6  1  0
  5 20  1  1
  5 21  1  0
  6  7  1  0
  6 22  1  1
  6 23  1  0
  7  8  1  0
  7 24  1  1
  7 25  1  0
  8  9  1  0
  8 26  1  6
  8 27  1  0
  9 28  1  6
 10 11  1  0
 10 29  1  0
 11 12  2  0
 11 14  1  0
 12 13  1  0
 12 17  1  0
 13 30  1  1
 13 31  1  0
 13 32  1  0
 14 15  2  0
 14 33  1  0
 15 16  1  0
 16 17  2  0
 16 34  1  0
 17 35  1  0
M  END
$$$$
