LIG(B-307)
     RDKit          3D

 72 74  0  0  1  0  0  0  0  0999 V2000
   -6.3645   62.0360   18.2826 C   0  0  0  0  0  0  0  0  0  0  0  0
   -7.4774   66.3869   19.5166 C   0  0  1  0  0  0  0  0  0  0  0  0
   -9.0426   64.0411   21.9100 C   0  0  0  0  0  0  0  0  0  0  0  0
  -10.1120   61.2650   22.2092 C   0  0  0  0  0  0  0  0  0  0  0  0
  -12.2712   58.6728   22.7778 C   0  0  0  0  0  0  0  0  0  0  0  0
   -5.4996   62.4783   20.5157 C   0  0  1  0  0  0  0  0  0  0  0  0
   -4.9458   61.3373   20.2604 C   0  0  1  0  0  0  0  0  0  0  0  0
  -10.8887   62.5571   24.0807 C   0  0  1  0  0  0  0  0  0  0  0  0
   -6.7493   62.6606   19.3556 C   0  0  1  0  0  0  0  0  0  0  0  0
  -10.5316   63.5958   22.1453 C   0  0  2  0  0  0  0  0  0  0  0  0
  -11.7453   63.8860   24.2465 C   0  0  1  0  0  0  0  0  0  0  0  0
  -11.4534   64.6588   22.9131 C   0  0  2  0  0  0  0  0  0  0  0  0
  -12.9086   64.5377   23.4429 C   0  0  1  0  0  0  0  0  0  0  0  0
  -13.7098   63.4685   22.6482 C   0  0  1  0  0  0  0  0  0  0  0  0
  -13.5577   65.7959   24.0330 C   0  0  1  0  0  0  0  0  0  0  0  0
   -7.8633   60.4817   24.0140 C   0  0  1  0  0  0  0  0  0  0  0  0
   -8.8549   58.1257   24.1331 C   0  0  1  0  0  0  0  0  0  0  0  0
   -8.0038   59.0337   21.9432 C   0  0  1  0  0  0  0  0  0  0  0  0
   -6.8745   64.1728   19.0380 C   0  0  1  0  0  0  0  0  0  0  0  0
   -7.3924   65.0348   20.1967 C   0  0  2  0  0  0  0  0  0  0  0  0
  -10.1252   59.9636   23.0346 C   0  0  2  0  0  0  0  0  0  0  0  0
  -13.0775   57.7328   21.8840 C   0  0  2  0  0  0  0  0  0  0  0  0
   -8.7028   59.4091   23.2762 C   0  0  2  0  0  0  0  0  0  0  0  0
   -6.4917   67.1497   19.6363 N   0  0  1  0  0  0  0  0  0  0  0  0
   -5.1366   61.0898   18.7018 N   0  0  0  0  0  0  0  0  0  0  0  0
  -10.5444   62.5065   22.8600 N   0  0  0  0  0  0  0  0  0  0  0  0
   -8.7279   64.5929   20.5854 N   0  0  0  0  0  0  0  0  0  0  0  0
  -10.9458   59.0509   22.2866 N   0  0  0  0  0  0  0  0  0  0  0  0
   -6.7978   62.1215   17.1877 O   0  0  0  0  0  0  0  0  0  0  0  0
   -8.2148   63.9046   22.7605 O   0  0  0  0  0  0  0  0  0  0  0  0
   -9.7983   61.3242   21.0606 O   0  0  0  0  0  0  0  0  0  0  0  0
  -12.7141   59.0723   23.8064 O   0  0  0  0  0  0  0  0  0  0  0  0
  -12.4526   56.5269   21.8185 F   0  0  0  0  0  0  0  0  0  0  0  0
  -13.1189   58.3000   20.6353 F   0  0  0  0  0  0  0  0  0  0  0  0
  -14.3357   57.6045   22.3985 F   0  0  0  0  0  0  0  0  0  0  0  0
   -7.6290   66.2079   18.4418 H   0  0  0  0  0  0  0  0  0  0  0  0
   -8.3530   66.9102   19.9283 H   0  0  0  0  0  0  0  0  0  0  0  0
   -5.9178   62.4822   21.5331 H   0  0  0  0  0  0  0  0  0  0  0  0
   -4.7649   63.2911   20.4181 H   0  0  0  0  0  0  0  0  0  0  0  0
   -3.8758   61.3679   20.5133 H   0  0  0  0  0  0  0  0  0  0  0  0
   -5.4361   60.5384   20.8360 H   0  0  0  0  0  0  0  0  0  0  0  0
   -9.9990   62.5941   24.7264 H   0  0  0  0  0  0  0  0  0  0  0  0
  -11.4953   61.6776   24.3423 H   0  0  0  0  0  0  0  0  0  0  0  0
   -7.6852   62.2826   19.7929 H   0  0  0  0  0  0  0  0  0  0  0  0
  -10.9857   63.4285   21.1574 H   0  0  0  0  0  0  0  0  0  0  0  0
  -11.4665   64.4590   25.1432 H   0  0  0  0  0  0  0  0  0  0  0  0
  -10.9899   65.6478   23.0442 H   0  0  0  0  0  0  0  0  0  0  0  0
  -14.7335   63.4062   23.0458 H   0  0  0  0  0  0  0  0  0  0  0  0
  -13.7458   63.7521   21.5860 H   0  0  0  0  0  0  0  0  0  0  0  0
  -13.2169   62.4904   22.7502 H   0  0  0  0  0  0  0  0  0  0  0  0
  -14.5798   65.5606   24.3647 H   0  0  0  0  0  0  0  0  0  0  0  0
  -12.9653   66.1459   24.8912 H   0  0  0  0  0  0  0  0  0  0  0  0
  -13.5934   66.5839   23.2664 H   0  0  0  0  0  0  0  0  0  0  0  0
   -8.3580   60.7486   24.9596 H   0  0  0  0  0  0  0  0  0  0  0  0
   -6.8608   60.0812   24.2252 H   0  0  0  0  0  0  0  0  0  0  0  0
   -7.7746   61.3770   23.3812 H   0  0  0  0  0  0  0  0  0  0  0  0
   -9.3496   58.3752   25.0834 H   0  0  0  0  0  0  0  0  0  0  0  0
   -9.4621   57.3896   23.5859 H   0  0  0  0  0  0  0  0  0  0  0  0
   -7.8608   57.7015   24.3376 H   0  0  0  0  0  0  0  0  0  0  0  0
   -8.5991   58.2721   21.4182 H   0  0  0  0  0  0  0  0  0  0  0  0
   -7.9151   59.9294   21.3109 H   0  0  0  0  0  0  0  0  0  0  0  0
   -7.0013   58.6337   22.1550 H   0  0  0  0  0  0  0  0  0  0  0  0
   -5.8797   64.5456   18.7527 H   0  0  0  0  0  0  0  0  0  0  0  0
   -7.5663   64.2880   18.1906 H   0  0  0  0  0  0  0  0  0  0  0  0
   -6.6861   65.0449   21.0400 H   0  0  0  0  0  0  0  0  0  0  0  0
  -10.5888   60.1723   24.0101 H   0  0  0  0  0  0  0  0  0  0  0  0
   -6.7523   68.0767   19.3663 H   0  0  0  0  0  0  0  0  0  0  0  0
   -6.1869   67.1532   20.5887 H   0  0  0  0  0  0  0  0  0  0  0  0
   -5.7485   66.8283   19.0496 H   0  0  0  0  0  0  0  0  0  0  0  0
   -4.6081   60.4792   18.1120 H   0  0  0  0  0  0  0  0  0  0  0  0
   -9.4665   64.6696   19.9157 H   0  0  0  0  0  0  0  0  0  0  0  0
  -10.6086   58.6718   21.4248 H   0  0  0  0  0  0  0  0  0  0  0  0
  1  9  1  0
  1 25  1  0
  1 29  2  0
  2 20  1  0
  2 24  1  0
  2 36  1  6
  2 37  1  0
  3 10  1  0
  3 27  1  0
  3 30  2  0
  4 21  1  0
  4 26  1  0
  4 31  2  0
  5 22  1  0
  5 28  1  0
  5 32  2  0
  6  7  1  0
  6  9  1  0
  6 38  1  1
  6 39  1  0
  7 25  1  0
  7 40  1  6
  7 41  1  0
  8 11  1  0
  8 26  1  0
  8 42  1  1
  8 43  1  0
  9 19  1  0
  9 44  1  1
 10 12  1  0
 10 26  1  0
 10 45  1  6
 11 12  1  0
 13 11  1  1
 11 46  1  1
 12 13  1  0
 12 47  1  1
 13 14  1  0
 13 15  1  0
 14 48  1  1
 14 49  1  0
 14 50  1  0
 15 51  1  1
 15 52  1  0
 15 53  1  0
 16 23  1  0
 16 54  1  1
 16 55  1  0
 16 56  1  0
 17 23  1  0
 17 57  1  1
 17 58  1  0
 17 59  1  0
 18 23  1  0
 18 60  1  6
 18 61  1  0
 18 62  1  0
 19 20  1  0
 19 63  1  6
 19 64  1  0
 20 27  1  0
 20 65  1  1
 23 21  1  6
 21 28  1  0
 21 66  1  1
 22 33  1  6
 22 34  1  0
 22 35  1  0
 24 67  1  6
 24 68  1  0
 24 69  1  0
 25 70  1  0
 27 71  1  0
 28 72  1  0
M  CHG  1  24   1
M  END
$$$$
