LIG(A-306)
     RDKit          3D

 53 57  0  0  1  0  0  0  0  0999 V2000
   11.0497    3.1181   24.4193 O   0  0  0  0  0  0  0  0  0  0  0  0
   10.6608    2.0001   24.1463 C   0  0  0  0  0  0  0  0  0  0  0  0
    9.3939    1.5919   24.4123 N   0  0  0  0  0  0  0  0  0  0  0  0
    8.5128    2.4157   25.2184 C   0  0  1  0  0  0  0  0  0  0  0  0
    7.8496    3.5896   24.5104 C   0  0  0  0  0  0  0  0  0  0  0  0
    7.1605    4.3825   25.1475 O   0  0  0  0  0  0  0  0  0  0  0  0
    8.0195    3.7027   23.1984 N   0  0  0  0  0  0  0  0  0  0  0  0
    7.2334    4.6186   22.3925 C   0  0  1  0  0  0  0  0  0  0  0  0
   11.5330    1.0282   23.4692 C   0  0  0  0  0  0  0  0  0  0  0  0
   12.8949    1.3065   23.3732 C   0  0  0  0  0  0  0  0  0  0  0  0
   13.7370    0.4466   22.6971 C   0  0  0  0  0  0  0  0  0  0  0  0
   13.2182   -0.6994   22.1361 C   0  0  0  0  0  0  0  0  0  0  0  0
   14.2683   -1.7402   21.2220 Cl  0  0  0  0  0  0  0  0  0  0  0  0
   11.8772   -1.0237   22.2381 C   0  0  0  0  0  0  0  0  0  0  0  0
   11.0171   -0.1398   22.8852 C   0  0  0  0  0  0  0  0  0  0  0  0
    9.4982   -0.3211   22.8242 C   0  0  1  0  0  0  0  0  0  0  0  0
    8.9541    0.2148   24.1753 C   0  0  2  0  0  0  0  0  0  0  0  0
    8.8620    0.4849   21.6833 C   0  0  0  0  0  0  0  0  0  0  0  0
    9.1868    1.6030   21.3263 O   0  0  0  0  0  0  0  0  0  0  0  0
    7.8451   -0.2483   21.1533 N   0  0  0  0  0  0  0  0  0  0  0  0
    7.6803   -1.5533   21.8163 C   0  0  1  0  0  0  0  0  0  0  0  0
    9.0244   -1.7651   22.5162 C   0  0  2  0  0  0  0  0  0  0  0  0
    6.9920    0.1836   20.0874 C   0  0  0  0  0  0  0  0  0  0  0  0
    5.8649    1.0125   20.3744 C   0  0  0  0  0  0  0  0  0  0  0  0
    5.4988    1.4094   21.6875 C   0  0  0  0  0  0  0  0  0  0  0  0
    4.4147    2.2242   21.8675 C   0  0  0  0  0  0  0  0  0  0  0  0
    4.0607    2.8101   23.4716 Cl  0  0  0  0  0  0  0  0  0  0  0  0
    3.6326    2.6601   20.8076 C   0  0  0  0  0  0  0  0  0  0  0  0
    3.9616    2.2992   19.5335 C   0  0  0  0  0  0  0  0  0  0  0  0
    5.0817    1.4734   19.2775 C   0  0  0  0  0  0  0  0  0  0  0  0
    5.4738    1.0755   17.9714 C   0  0  0  0  0  0  0  0  0  0  0  0
    6.5259    0.3107   17.7094 N   0  0  0  0  0  0  0  0  0  0  0  0
    7.2510   -0.1163   18.7533 C   0  0  0  0  0  0  0  0  0  0  0  0
    7.7154    1.7680   25.6116 H   0  0  0  0  0  0  0  0  0  0  0  0
    9.1032    2.8190   26.0543 H   0  0  0  0  0  0  0  0  0  0  0  0
    8.7125    3.1378   22.7505 H   0  0  0  0  0  0  0  0  0  0  0  0
    7.5452    4.5424   21.3404 H   0  0  0  0  0  0  0  0  0  0  0  0
    6.1676    4.3603   22.4785 H   0  0  0  0  0  0  0  0  0  0  0  0
    7.3911    5.6476   22.7479 H   0  0  0  0  0  0  0  0  0  0  0  0
   13.2940    2.1999   23.8303 H   0  0  0  0  0  0  0  0  0  0  0  0
   14.7901    0.6698   22.6091 H   0  0  0  0  0  0  0  0  0  0  0  0
   11.5032   -1.9477   21.8225 H   0  0  0  0  0  0  0  0  0  0  0  0
    7.8546    0.1871   24.1561 H   0  0  0  0  0  0  0  0  0  0  0  0
    9.3228   -0.4254   24.9902 H   0  0  0  0  0  0  0  0  0  0  0  0
    6.8569   -1.5239   22.5450 H   0  0  0  0  0  0  0  0  0  0  0  0
    7.4900   -2.3480   21.0799 H   0  0  0  0  0  0  0  0  0  0  0  0
    8.8991   -2.3447   23.4427 H   0  0  0  0  0  0  0  0  0  0  0  0
    9.7361   -2.2806   21.8547 H   0  0  0  0  0  0  0  0  0  0  0  0
    6.0719    1.0706   22.5378 H   0  0  0  0  0  0  0  0  0  0  0  0
    2.7683    3.2816   20.9899 H   0  0  0  0  0  0  0  0  0  0  0  0
    3.3584    2.6488   18.7087 H   0  0  0  0  0  0  0  0  0  0  0  0
    4.8773    1.4173   17.1385 H   0  0  0  0  0  0  0  0  0  0  0  0
    8.1046   -0.7432   18.5420 H   0  0  0  0  0  0  0  0  0  0  0  0
  1  2  2  0
  2  3  1  0
  2  9  1  0
  3  4  1  0
  3 17  1  0
  4  5  1  0
  4 34  1  1
  4 35  1  0
  5  6  2  0
  5  7  1  0
  7  8  1  0
  7 36  1  0
  8 37  1  6
  8 38  1  0
  8 39  1  0
  9 10  2  0
  9 15  1  0
 10 11  1  0
 10 40  1  0
 11 12  2  0
 11 41  1  0
 12 13  1  0
 12 14  1  0
 14 15  2  0
 14 42  1  0
 15 16  1  0
 16 17  1  0
 16 18  1  6
 16 22  1  0
 17 43  1  6
 17 44  1  0
 18 19  2  0
 18 20  1  0
 20 21  1  0
 20 23  1  0
 21 22  1  0
 21 45  1  1
 21 46  1  0
 22 47  1  1
 22 48  1  0
 23 24  2  0
 23 33  1  0
 24 25  1  0
 24 30  1  0
 25 26  2  0
 25 49  1  0
 26 27  1  0
 26 28  1  0
 28 29  2  0
 28 50  1  0
 29 30  1  0
 29 51  1  0
 30 31  2  0
 31 32  1  0
 31 52  1  0
 32 33  2  0
 33 53  1  0
M  END
$$$$
