LIG(A-306)
     RDKit          3D

 38 40  0  0  0  0  0  0  0  0999 V2000
    2.1745    2.9156   21.1854 F   0  0  0  0  0  0  0  0  0  0  0  0
    3.2496    2.1589   20.8644 C   0  0  0  0  0  0  0  0  0  0  0  0
    3.9108    1.5180   21.9014 C   0  0  0  0  0  0  0  0  0  0  0  0
    3.4367    1.7810   23.1554 O   0  0  0  0  0  0  0  0  0  0  0  0
    3.6180    0.7820   24.1634 C   0  0  1  0  0  0  0  0  0  0  0  0
    3.6416    2.0669   19.5774 C   0  0  0  0  0  0  0  0  0  0  0  0
    4.7707    1.2811   19.2504 C   0  0  0  0  0  0  0  0  0  0  0  0
    5.4719    0.6153   20.2954 C   0  0  0  0  0  0  0  0  0  0  0  0
    5.0039    0.7522   21.6184 C   0  0  0  0  0  0  0  0  0  0  0  0
    5.2487    1.1132   17.9274 C   0  0  0  0  0  0  0  0  0  0  0  0
    6.3039    0.3764   17.6014 N   0  0  0  0  0  0  0  0  0  0  0  0
    6.9640   -0.2345   18.5944 C   0  0  0  0  0  0  0  0  0  0  0  0
    6.6250   -0.1525   19.9454 C   0  0  0  0  0  0  0  0  0  0  0  0
    7.3842   -0.7183   20.9924 N   0  0  0  0  0  0  0  0  0  0  0  0
    8.4391   -0.1861   21.6553 C   0  0  0  0  0  0  0  0  0  0  0  0
    8.8979    0.9360   21.4263 O   0  0  0  0  0  0  0  0  0  0  0  0
    9.0373   -1.0930   22.7143 C   0  0  1  0  0  0  0  0  0  0  0  0
   10.4642   -0.7337   23.0623 C   0  0  0  0  0  0  0  0  0  0  0  0
   11.5173   -1.2415   22.3063 C   0  0  0  0  0  0  0  0  0  0  0  0
   12.8022   -0.7842   22.5293 C   0  0  0  0  0  0  0  0  0  0  0  0
   14.0993   -1.3880   21.5292 Cl  0  0  0  0  0  0  0  0  0  0  0  0
   13.0821    0.1499   23.5072 C   0  0  0  0  0  0  0  0  0  0  0  0
   12.0410    0.6227   24.2912 C   0  0  0  0  0  0  0  0  0  0  0  0
   10.7441    0.1844   24.0673 C   0  0  0  0  0  0  0  0  0  0  0  0
    3.1876    1.1354   25.1121 H   0  0  0  0  0  0  0  0  0  0  0  0
    3.1135   -0.1456   23.8550 H   0  0  0  0  0  0  0  0  0  0  0  0
    4.6923    0.5878   24.2981 H   0  0  0  0  0  0  0  0  0  0  0  0
    3.0981    2.5887   18.8036 H   0  0  0  0  0  0  0  0  0  0  0  0
    5.5185    0.2432   22.4199 H   0  0  0  0  0  0  0  0  0  0  0  0
    4.7202    1.6175   17.1320 H   0  0  0  0  0  0  0  0  0  0  0  0
    7.8219   -0.8347   18.3296 H   0  0  0  0  0  0  0  0  0  0  0  0
    7.1064   -1.6338   21.2835 H   0  0  0  0  0  0  0  0  0  0  0  0
    8.4252   -1.0194   23.6254 H   0  0  0  0  0  0  0  0  0  0  0  0
    9.0173   -2.1278   22.3418 H   0  0  0  0  0  0  0  0  0  0  0  0
   11.3309   -1.9890   21.5494 H   0  0  0  0  0  0  0  0  0  0  0  0
   14.0909    0.5047   23.6581 H   0  0  0  0  0  0  0  0  0  0  0  0
   12.2404    1.3343   25.0787 H   0  0  0  0  0  0  0  0  0  0  0  0
    9.9407    0.5620   24.6825 H   0  0  0  0  0  0  0  0  0  0  0  0
  1  2  1  0
  2  3  2  0
  2  6  1  0
  3  4  1  0
  3  9  1  0
  4  5  1  0
  5 25  1  1
  5 26  1  0
  5 27  1  0
  6  7  2  0
  6 28  1  0
  7  8  1  0
  7 10  1  0
  8  9  2  0
  8 13  1  0
  9 29  1  0
 10 11  2  0
 10 30  1  0
 11 12  1  0
 12 13  2  0
 12 31  1  0
 13 14  1  0
 14 15  1  0
 14 32  1  0
 15 16  2  0
 15 17  1  0
 17 18  1  0
 17 33  1  1
 17 34  1  0
 18 19  2  0
 18 24  1  0
 19 20  1  0
 19 35  1  0
 20 21  1  0
 20 22  2  0
 22 23  1  0
 22 36  1  0
 23 24  2  0
 23 37  1  0
 24 38  1  0
M  END
$$$$
