LIG(A-306)
     RDKit          3D

 44 47  0  0  1  0  0  0  0  0999 V2000
    9.5182    1.3696   21.2673 O   0  0  0  0  0  0  0  0  0  0  0  0
    9.0682    0.3735   21.8382 C   0  0  0  0  0  0  0  0  0  0  0  0
    7.9372   -0.2625   21.4411 N   0  0  0  0  0  0  0  0  0  0  0  0
    7.1352    0.0346   20.3091 C   0  0  0  0  0  0  0  0  0  0  0  0
    6.0152    0.8926   20.3792 C   0  0  0  0  0  0  0  0  0  0  0  0
    5.6382    1.5465   21.6882 C   0  0  1  0  0  0  0  0  0  0  0  0
    4.1982    2.0225   21.7123 C   0  0  1  0  0  0  0  0  0  0  0  0
    3.8562    2.8236   20.4643 C   0  0  1  0  0  0  0  0  0  0  0  0
    4.0392    1.9907   19.2132 C   0  0  1  0  0  0  0  0  0  0  0  0
    5.3032    1.1638   19.1972 C   0  0  0  0  0  0  0  0  0  0  0  0
    5.7602    0.6029   18.0241 C   0  0  0  0  0  0  0  0  0  0  0  0
    6.8222   -0.2001   17.9331 N   0  0  0  0  0  0  0  0  0  0  0  0
    7.4842   -0.4782   19.0611 C   0  0  0  0  0  0  0  0  0  0  0  0
    9.7621   -0.2586   23.0491 C   0  0  1  0  0  0  0  0  0  0  0  0
   11.2721   -0.0836   23.0342 C   0  0  0  0  0  0  0  0  0  0  0  0
   12.0602   -0.9255   22.2491 C   0  0  0  0  0  0  0  0  0  0  0  0
   13.3912   -0.6255   22.0282 C   0  0  0  0  0  0  0  0  0  0  0  0
   14.2602   -1.5084   20.8061 Cl  0  0  0  0  0  0  0  0  0  0  0  0
    9.1711    0.2462   24.3732 C   0  0  1  0  0  0  0  0  0  0  0  0
    9.4951    1.6782   24.4933 N   0  0  0  0  0  0  0  0  0  0  0  0
   11.0581    1.9432   24.8764 S   0  0  1  0  0  0  0  0  0  0  0  0
   11.3381    3.3322   24.6635 O   0  0  0  0  0  0  0  0  0  0  0  0
   11.2981    1.3831   26.1743 O   0  0  0  0  0  0  0  0  0  0  0  0
   11.9101    0.9843   23.6773 C   0  0  0  0  0  0  0  0  0  0  0  0
   13.2571    1.2584   23.4753 C   0  0  0  0  0  0  0  0  0  0  0  0
   14.0011    0.4494   22.6373 C   0  0  0  0  0  0  0  0  0  0  0  0
    7.6349   -1.0268   22.0106 H   0  0  0  0  0  0  0  0  0  0  0  0
    5.7813    0.8176   22.4996 H   0  0  0  0  0  0  0  0  0  0  0  0
    6.2974    2.4117   21.8520 H   0  0  0  0  0  0  0  0  0  0  0  0
    3.5333    1.1481   21.7693 H   0  0  0  0  0  0  0  0  0  0  0  0
    4.0459    2.6572   22.5976 H   0  0  0  0  0  0  0  0  0  0  0  0
    2.8088    3.1540   20.5256 H   0  0  0  0  0  0  0  0  0  0  0  0
    4.5154    3.7025   20.4101 H   0  0  0  0  0  0  0  0  0  0  0  0
    3.1803    1.3092   19.1243 H   0  0  0  0  0  0  0  0  0  0  0  0
    4.0602    2.6691   18.3476 H   0  0  0  0  0  0  0  0  0  0  0  0
    5.2216    0.8289   17.1157 H   0  0  0  0  0  0  0  0  0  0  0  0
    8.3375   -1.1375   19.0017 H   0  0  0  0  0  0  0  0  0  0  0  0
    9.5630   -1.3394   23.0029 H   0  0  0  0  0  0  0  0  0  0  0  0
   11.6290   -1.8144   21.8127 H   0  0  0  0  0  0  0  0  0  0  0  0
    8.0798    0.1081   24.3727 H   0  0  0  0  0  0  0  0  0  0  0  0
    9.6106   -0.3088   25.2150 H   0  0  0  0  0  0  0  0  0  0  0  0
    9.0338    2.3263   23.8873 H   0  0  0  0  0  0  0  0  0  0  0  0
   13.7203    2.0989   23.9705 H   0  0  0  0  0  0  0  0  0  0  0  0
   15.0464    0.6571   22.4622 H   0  0  0  0  0  0  0  0  0  0  0  0
  1  2  2  0
  2  3  1  0
  2 14  1  0
  3  4  1  0
  3 27  1  0
  4  5  2  0
  4 13  1  0
  5  6  1  0
  5 10  1  0
  6  7  1  0
  6 28  1  1
  6 29  1  0
  7  8  1  0
  7 30  1  1
  7 31  1  0
  8  9  1  0
  8 32  1  1
  8 33  1  0
  9 10  1  0
  9 34  1  6
  9 35  1  0
 10 11  2  0
 11 12  1  0
 11 36  1  0
 12 13  2  0
 13 37  1  0
 14 15  1  0
 14 19  1  0
 14 38  1  6
 15 16  2  0
 15 24  1  0
 16 17  1  0
 16 39  1  0
 17 18  1  0
 17 26  2  0
 19 20  1  0
 19 40  1  6
 19 41  1  0
 21 20  1  6
 20 42  1  0
 21 22  2  0
 21 23  2  0
 21 24  1  0
 24 25  2  0
 25 26  1  0
 25 43  1  0
 26 44  1  0
M  END
$$$$
