LIG(A-305)
     RDKit          3D

 36 37  0  0  1  0  0  0  0  0999 V2000
   13.9297   -1.6585   21.2299 Cl  0  0  0  0  0  0  0  0  0  0  0  0
   12.8078   -0.7844   22.2280 C   0  0  0  0  0  0  0  0  0  0  0  0
   13.2869    0.1336   23.1359 C   0  0  0  0  0  0  0  0  0  0  0  0
   12.3920    0.7367   24.0069 C   0  0  0  0  0  0  0  0  0  0  0  0
   11.0390    0.4447   23.9300 C   0  0  0  0  0  0  0  0  0  0  0  0
   11.4618   -1.0744   22.1290 C   0  0  0  0  0  0  0  0  0  0  0  0
   10.5569   -0.4363   22.9711 C   0  0  0  0  0  0  0  0  0  0  0  0
    9.0669   -0.5952   22.7291 C   0  0  2  0  0  0  0  0  0  0  0  0
    8.6278   -2.0672   22.7032 C   0  0  1  0  0  0  0  0  0  0  0  0
    8.6968   -2.7212   24.0662 C   0  0  1  0  0  0  0  0  0  0  0  0
    8.6898    0.1947   21.4711 C   0  0  0  0  0  0  0  0  0  0  0  0
    9.1759    1.2957   21.2311 O   0  0  0  0  0  0  0  0  0  0  0  0
    7.8128   -0.4083   20.6372 N   0  0  0  0  0  0  0  0  0  0  0  0
    6.7257   -0.0093   19.8372 C   0  0  0  0  0  0  0  0  0  0  0  0
    5.7118    0.8568   20.3023 C   0  0  0  0  0  0  0  0  0  0  0  0
    5.3609    0.9709   21.7643 C   0  0  1  0  0  0  0  0  0  0  0  0
    4.9618    1.5298   19.3433 C   0  0  0  0  0  0  0  0  0  0  0  0
    5.1677    1.3857   18.0283 N   0  0  0  0  0  0  0  0  0  0  0  0
    6.1426    0.5377   17.5862 N   0  0  0  0  0  0  0  0  0  0  0  0
    6.8597   -0.1373   18.4582 C   0  0  0  0  0  0  0  0  0  0  0  0
   14.3381    0.3789   23.1689 H   0  0  0  0  0  0  0  0  0  0  0  0
   12.7503    1.4362   24.7477 H   0  0  0  0  0  0  0  0  0  0  0  0
   10.3524    0.9075   24.6234 H   0  0  0  0  0  0  0  0  0  0  0  0
   11.1132   -1.7927   21.4018 H   0  0  0  0  0  0  0  0  0  0  0  0
    8.5479   -0.1204   23.5748 H   0  0  0  0  0  0  0  0  0  0  0  0
    7.5907   -2.1188   22.3403 H   0  0  0  0  0  0  0  0  0  0  0  0
    9.2851   -2.6185   22.0147 H   0  0  0  0  0  0  0  0  0  0  0  0
    8.3726   -3.7694   23.9875 H   0  0  0  0  0  0  0  0  0  0  0  0
    9.7314   -2.6845   24.4384 H   0  0  0  0  0  0  0  0  0  0  0  0
    8.0369   -2.1848   24.7639 H   0  0  0  0  0  0  0  0  0  0  0  0
    7.9796   -1.3921   20.5720 H   0  0  0  0  0  0  0  0  0  0  0  0
    6.2438    1.3050   22.3288 H   0  0  0  0  0  0  0  0  0  0  0  0
    4.5475    1.7007   21.8901 H   0  0  0  0  0  0  0  0  0  0  0  0
    5.0349   -0.0100   22.1406 H   0  0  0  0  0  0  0  0  0  0  0  0
    4.1797    2.1972   19.6738 H   0  0  0  0  0  0  0  0  0  0  0  0
    7.5958   -0.8320   18.0816 H   0  0  0  0  0  0  0  0  0  0  0  0
  1  2  1  0
  2  3  2  0
  2  6  1  0
  3  4  1  0
  3 21  1  0
  4  5  2  0
  4 22  1  0
  5  7  1  0
  5 23  1  0
  6  7  2  0
  6 24  1  0
  7  8  1  0
  8  9  1  0
  8 11  1  0
  8 25  1  1
  9 10  1  0
  9 26  1  6
  9 27  1  0
 10 28  1  6
 10 29  1  0
 10 30  1  0
 11 12  2  0
 11 13  1  0
 13 14  1  0
 13 31  1  0
 14 15  2  0
 14 20  1  0
 15 16  1  0
 15 17  1  0
 16 32  1  1
 16 33  1  0
 16 34  1  0
 17 18  2  0
 17 35  1  0
 18 19  1  0
 19 20  2  0
 20 36  1  0
M  END
$$$$
