LIG(A-305)
     RDKit          3D

 26 26  0  0  0  0  0  0  0  0999 V2000
    6.5670   -5.0398   26.5745 C   0  0  1  0  0  0  0  0  0  0  0  0
    9.4528   -3.1148   24.1692 C   0  0  1  0  0  0  0  0  0  0  0  0
    9.3527   -1.8308   23.3572 C   0  0  1  0  0  0  0  0  0  0  0  0
   10.7497   -1.2319   23.4041 C   0  0  0  0  0  0  0  0  0  0  0  0
   11.0608   -0.1919   24.2711 C   0  0  0  0  0  0  0  0  0  0  0  0
   12.3528    0.3081   24.2959 C   0  0  0  0  0  0  0  0  0  0  0  0
   13.3297   -0.2449   23.4838 C   0  0  0  0  0  0  0  0  0  0  0  0
   13.0157   -1.2929   22.6279 C   0  0  0  0  0  0  0  0  0  0  0  0
   11.7257   -1.7829   22.5970 C   0  0  0  0  0  0  0  0  0  0  0  0
    8.1978   -3.6198   24.6643 N   0  0  0  0  0  0  0  0  0  0  0  0
    9.2120   -5.5388   26.1603 O   0  0  0  0  0  0  0  0  0  0  0  0
    8.7791   -3.6118   27.2023 O   0  0  0  0  0  0  0  0  0  0  0  0
    8.2290   -4.4508   26.1514 S   0  0  2  0  0  0  0  0  0  0  0  0
    6.6004   -5.5740   27.5355 H   0  0  0  0  0  0  0  0  0  0  0  0
    5.8836   -4.1816   26.6558 H   0  0  0  0  0  0  0  0  0  0  0  0
    6.2084   -5.7210   25.7887 H   0  0  0  0  0  0  0  0  0  0  0  0
    9.9041   -3.8885   23.5306 H   0  0  0  0  0  0  0  0  0  0  0  0
   10.1080   -2.9232   25.0318 H   0  0  0  0  0  0  0  0  0  0  0  0
    9.0597   -2.0502   22.3199 H   0  0  0  0  0  0  0  0  0  0  0  0
    8.6212   -1.1437   23.8074 H   0  0  0  0  0  0  0  0  0  0  0  0
   10.3031    0.2229   24.9193 H   0  0  0  0  0  0  0  0  0  0  0  0
   12.5991    1.1313   24.9502 H   0  0  0  0  0  0  0  0  0  0  0  0
   14.3383    0.1399   23.5164 H   0  0  0  0  0  0  0  0  0  0  0  0
   13.7755   -1.7213   21.9910 H   0  0  0  0  0  0  0  0  0  0  0  0
   11.4780   -2.6019   21.9379 H   0  0  0  0  0  0  0  0  0  0  0  0
    7.3823   -3.0756   24.4676 H   0  0  0  0  0  0  0  0  0  0  0  0
  1 13  1  0
  1 14  1  1
  1 15  1  0
  1 16  1  0
  2  3  1  0
  2 10  1  0
  2 17  1  6
  2 18  1  0
  3  4  1  0
  3 19  1  6
  3 20  1  0
  4  5  2  0
  4  9  1  0
  5  6  1  0
  5 21  1  0
  6  7  2  0
  6 22  1  0
  7  8  1  0
  7 23  1  0
  8  9  2  0
  8 24  1  0
  9 25  1  0
 13 10  1  6
 10 26  1  0
 11 13  2  0
 12 13  2  0
M  END
$$$$
