LIG(A-306)
     RDKit          3D

 49 52  0  0  1  0  0  0  0  0999 V2000
   10.6358    2.9530   24.5671 O   0  0  0  0  0  0  0  0  0  0  0  0
   10.3000    1.8219   24.2730 C   0  0  0  0  0  0  0  0  0  0  0  0
    9.0080    1.3867   24.4279 N   0  0  0  0  0  0  0  0  0  0  0  0
    8.0649    2.1895   25.1830 C   0  0  1  0  0  0  0  0  0  0  0  0
    7.4577    3.3895   24.4700 C   0  0  0  0  0  0  0  0  0  0  0  0
    6.7456    4.1773   25.0870 O   0  0  0  0  0  0  0  0  0  0  0  0
    7.7027    3.5216   23.1700 N   0  0  0  0  0  0  0  0  0  0  0  0
    7.0026    4.4875   22.3440 C   0  0  1  0  0  0  0  0  0  0  0  0
   11.2251    0.9001   23.5870 C   0  0  0  0  0  0  0  0  0  0  0  0
   12.5751    1.2413   23.4760 C   0  0  0  0  0  0  0  0  0  0  0  0
   13.4482    0.4255   22.7810 C   0  0  0  0  0  0  0  0  0  0  0  0
   12.9694   -0.7345   22.2109 C   0  0  0  0  0  0  0  0  0  0  0  0
   14.0726   -1.7853   21.3699 Cl  0  0  0  0  0  0  0  0  0  0  0  0
   11.6355   -1.0908   22.2939 C   0  0  0  0  0  0  0  0  0  0  0  0
   10.7413   -0.2569   22.9639 C   0  0  0  0  0  0  0  0  0  0  0  0
    9.2564   -0.5522   22.9378 C   0  0  1  0  0  0  0  0  0  0  0  0
    8.6003   -0.0033   24.2039 C   0  0  2  0  0  0  0  0  0  0  0  0
    8.6743    0.1738   21.7219 C   0  0  0  0  0  0  0  0  0  0  0  0
    9.0931    1.2659   21.3459 O   0  0  0  0  0  0  0  0  0  0  0  0
    7.6304   -0.4533   21.1348 N   0  0  0  0  0  0  0  0  0  0  0  0
    6.8514    0.0086   20.0538 C   0  0  0  0  0  0  0  0  0  0  0  0
    5.7232    0.8454   20.3298 C   0  0  0  0  0  0  0  0  0  0  0  0
    5.2501    1.1293   21.6398 C   0  0  0  0  0  0  0  0  0  0  0  0
    4.1660    1.9421   21.8348 C   0  0  0  0  0  0  0  0  0  0  0  0
    3.5129    2.5220   20.7539 C   0  0  0  0  0  0  0  0  0  0  0  0
    3.9280    2.2762   19.4758 C   0  0  0  0  0  0  0  0  0  0  0  0
    5.0362    1.4274   19.2268 C   0  0  0  0  0  0  0  0  0  0  0  0
    5.4972    1.1145   17.9228 C   0  0  0  0  0  0  0  0  0  0  0  0
    6.5304    0.3217   17.6678 N   0  0  0  0  0  0  0  0  0  0  0  0
    7.1784   -0.2093   18.7148 C   0  0  0  0  0  0  0  0  0  0  0  0
    7.2383    1.5314   25.4890 H   0  0  0  0  0  0  0  0  0  0  0  0
    8.5866    2.5628   26.0766 H   0  0  0  0  0  0  0  0  0  0  0  0
    8.3933    2.9350   22.7468 H   0  0  0  0  0  0  0  0  0  0  0  0
    7.3673    4.4180   21.3086 H   0  0  0  0  0  0  0  0  0  0  0  0
    5.9234    4.2759   22.3675 H   0  0  0  0  0  0  0  0  0  0  0  0
    7.1860    5.5011   22.7300 H   0  0  0  0  0  0  0  0  0  0  0  0
   12.9389    2.1482   23.9361 H   0  0  0  0  0  0  0  0  0  0  0  0
   14.4902    0.6932   22.6861 H   0  0  0  0  0  0  0  0  0  0  0  0
   11.2889   -2.0087   21.8426 H   0  0  0  0  0  0  0  0  0  0  0  0
    9.0804   -1.6349   22.8553 H   0  0  0  0  0  0  0  0  0  0  0  0
    7.5067   -0.0472   24.0938 H   0  0  0  0  0  0  0  0  0  0  0  0
    8.9069   -0.6146   25.0654 H   0  0  0  0  0  0  0  0  0  0  0  0
    7.3824   -1.3466   21.5099 H   0  0  0  0  0  0  0  0  0  0  0  0
    5.7528    0.6979   22.4928 H   0  0  0  0  0  0  0  0  0  0  0  0
    3.8150    2.1344   22.8379 H   0  0  0  0  0  0  0  0  0  0  0  0
    2.6689    3.1736   20.9259 H   0  0  0  0  0  0  0  0  0  0  0  0
    3.4072    2.7326   18.6472 H   0  0  0  0  0  0  0  0  0  0  0  0
    4.9743    1.5492   17.0838 H   0  0  0  0  0  0  0  0  0  0  0  0
    8.0182   -0.8553   18.5057 H   0  0  0  0  0  0  0  0  0  0  0  0
  1  2  2  0
  2  3  1  0
  2  9  1  0
  3  4  1  0
  3 17  1  0
  4  5  1  0
  4 31  1  1
  4 32  1  0
  5  6  2  0
  5  7  1  0
  7  8  1  0
  7 33  1  0
  8 34  1  6
  8 35  1  0
  8 36  1  0
  9 10  2  0
  9 15  1  0
 10 11  1  0
 10 37  1  0
 11 12  2  0
 11 38  1  0
 12 13  1  0
 12 14  1  0
 14 15  2  0
 14 39  1  0
 15 16  1  0
 16 17  1  0
 16 18  1  0
 16 40  1  6
 17 41  1  6
 17 42  1  0
 18 19  2  0
 18 20  1  0
 20 21  1  0
 20 43  1  0
 21 22  2  0
 21 30  1  0
 22 23  1  0
 22 27  1  0
 23 24  2  0
 23 44  1  0
 24 25  1  0
 24 45  1  0
 25 26  2  0
 25 46  1  0
 26 27  1  0
 26 47  1  0
 27 28  2  0
 28 29  1  0
 28 48  1  0
 29 30  2  0
 30 49  1  0
M  END
$$$$
