LIG(A-305)
     RDKit          3D

 27 27  0  0  0  0  0  0  0  0999 V2000
    5.5497  -30.1095   10.7252 C   0  0  1  0  0  0  0  0  0  0  0  0
    5.0157  -29.9096    9.3062 C   0  0  0  0  0  0  0  0  0  0  0  0
    5.3257  -27.3836    9.3570 C   0  0  1  0  0  0  0  0  0  0  0  0
    4.3817  -26.1956    9.3220 C   0  0  0  0  0  0  0  0  0  0  0  0
    3.9368  -25.6225   10.5040 C   0  0  0  0  0  0  0  0  0  0  0  0
    3.1028  -24.5185   10.4539 C   0  0  0  0  0  0  0  0  0  0  0  0
    2.7298  -23.9906    9.2289 C   0  0  0  0  0  0  0  0  0  0  0  0
    3.1857  -24.5586    8.0619 C   0  0  0  0  0  0  0  0  0  0  0  0
    4.0127  -25.6557    8.1140 C   0  0  0  0  0  0  0  0  0  0  0  0
    4.8937  -28.5966    8.6761 N   0  0  0  0  0  0  0  0  0  0  0  0
    1.9057  -21.7096    7.6508 N   0  0  0  0  0  0  0  0  0  0  0  0
    4.6636  -30.8676    8.7063 O   0  0  0  0  0  0  0  0  0  0  0  0
    1.8218  -21.6365   10.2318 O   0  0  0  0  0  0  0  0  0  0  0  0
    0.2318  -22.9345    9.2469 O   0  0  0  0  0  0  0  0  0  0  0  0
    1.6388  -22.5495    9.1078 S   0  0  2  0  0  0  0  0  0  0  0  0
    5.5209  -31.1789   10.9811 H   0  0  0  0  0  0  0  0  0  0  0  0
    6.5868  -29.7471   10.7810 H   0  0  0  0  0  0  0  0  0  0  0  0
    4.9257  -29.5459   11.4345 H   0  0  0  0  0  0  0  0  0  0  0  0
    6.2740  -27.0665    8.8987 H   0  0  0  0  0  0  0  0  0  0  0  0
    5.4965  -27.6397   10.4131 H   0  0  0  0  0  0  0  0  0  0  0  0
    4.2384  -26.0341   11.4558 H   0  0  0  0  0  0  0  0  0  0  0  0
    2.7437  -24.0698   11.3683 H   0  0  0  0  0  0  0  0  0  0  0  0
    2.8950  -24.1442    7.1079 H   0  0  0  0  0  0  0  0  0  0  0  0
    4.3754  -26.0967    7.1973 H   0  0  0  0  0  0  0  0  0  0  0  0
    4.5049  -28.5295    7.7572 H   0  0  0  0  0  0  0  0  0  0  0  0
    2.2590  -20.7960    7.8520 H   0  0  0  0  0  0  0  0  0  0  0  0
    1.0446  -21.6304    7.1485 H   0  0  0  0  0  0  0  0  0  0  0  0
  1  2  1  0
  1 16  1  1
  1 17  1  0
  1 18  1  0
  2 10  1  0
  2 12  2  0
  3  4  1  0
  3 10  1  0
  3 19  1  6
  3 20  1  0
  4  5  2  0
  4  9  1  0
  5  6  1  0
  5 21  1  0
  6  7  2  0
  6 22  1  0
  7  8  1  0
  7 15  1  0
  8  9  2  0
  8 23  1  0
  9 24  1  0
 10 25  1  0
 15 11  1  6
 11 26  1  0
 11 27  1  0
 13 15  2  0
 14 15  2  0
M  END
$$$$
