LIG(A-306)
     RDKit          3D

 43 47  0  0  1  0  0  0  0  0999 V2000
    9.4968    1.4653   21.3006 O   0  0  0  0  0  0  0  0  0  0  0  0
    9.0559    0.4523   21.8087 C   0  0  0  0  0  0  0  0  0  0  0  0
    9.5754   -0.2180   23.0862 C   0  0  2  0  0  0  0  0  0  0  0  0
    8.9156    0.5117   24.2845 C   0  0  1  0  0  0  0  0  0  0  0  0
    9.8695    0.6885   25.4509 C   0  0  1  0  0  0  0  0  0  0  0  0
   11.0934    1.3280   25.0520 O   0  0  0  0  0  0  0  0  0  0  0  0
   11.1098   -0.1567   23.1279 C   0  0  0  0  0  0  0  0  0  0  0  0
   11.7635    0.6578   24.0605 C   0  0  0  0  0  0  0  0  0  0  0  0
   13.1375    0.8419   24.0323 C   0  0  0  0  0  0  0  0  0  0  0  0
   13.8833    0.1983   23.0621 C   0  0  0  0  0  0  0  0  0  0  0  0
   11.8829   -0.8394   22.1919 C   0  0  0  0  0  0  0  0  0  0  0  0
   13.2512   -0.6424   22.1693 C   0  0  0  0  0  0  0  0  0  0  0  0
   14.2036   -1.4762   20.9720 Cl  0  0  0  0  0  0  0  0  0  0  0  0
    7.9812   -0.2567   21.3577 N   0  0  0  0  0  0  0  0  0  0  0  0
    7.7953   -1.5346   22.0672 C   0  0  1  0  0  0  0  0  0  0  0  0
    9.0566   -1.6612   22.9154 C   0  0  1  0  0  0  0  0  0  0  0  0
    7.1215    0.1412   20.2797 C   0  0  0  0  0  0  0  0  0  0  0  0
    5.9417    0.9255   20.4882 C   0  0  0  0  0  0  0  0  0  0  0  0
    5.4678    1.3255   21.7675 C   0  0  0  0  0  0  0  0  0  0  0  0
    4.3388    2.0880   21.8941 C   0  0  0  0  0  0  0  0  0  0  0  0
    3.6359    2.5082   20.7674 C   0  0  0  0  0  0  0  0  0  0  0  0
    4.0555    2.1556   19.5153 C   0  0  0  0  0  0  0  0  0  0  0  0
    5.2145    1.3572   19.3399 C   0  0  0  0  0  0  0  0  0  0  0  0
    5.7055    0.9760   18.0644 C   0  0  0  0  0  0  0  0  0  0  0  0
    6.7950    0.2435   17.8756 N   0  0  0  0  0  0  0  0  0  0  0  0
    7.4664   -0.1559   18.9644 C   0  0  0  0  0  0  0  0  0  0  0  0
    8.5776    1.5040   23.9510 H   0  0  0  0  0  0  0  0  0  0  0  0
    8.0495   -0.0761   24.6226 H   0  0  0  0  0  0  0  0  0  0  0  0
    9.3806    1.3052   26.2195 H   0  0  0  0  0  0  0  0  0  0  0  0
   10.1056   -0.3007   25.8700 H   0  0  0  0  0  0  0  0  0  0  0  0
   13.6189    1.4798   24.7588 H   0  0  0  0  0  0  0  0  0  0  0  0
   14.9506    0.3523   23.0037 H   0  0  0  0  0  0  0  0  0  0  0  0
   11.4180   -1.5163   21.4904 H   0  0  0  0  0  0  0  0  0  0  0  0
    6.8970   -1.5046   22.7014 H   0  0  0  0  0  0  0  0  0  0  0  0
    7.7146   -2.3702   21.3564 H   0  0  0  0  0  0  0  0  0  0  0  0
    9.8056   -2.2823   22.4025 H   0  0  0  0  0  0  0  0  0  0  0  0
    8.8205   -2.1047   23.8940 H   0  0  0  0  0  0  0  0  0  0  0  0
    6.0072    1.0230   22.6529 H   0  0  0  0  0  0  0  0  0  0  0  0
    3.9892    2.3668   22.8772 H   0  0  0  0  0  0  0  0  0  0  0  0
    2.7520    3.1176   20.8842 H   0  0  0  0  0  0  0  0  0  0  0  0
    3.4992    2.4881   18.6513 H   0  0  0  0  0  0  0  0  0  0  0  0
    5.1579    1.3029   17.1927 H   0  0  0  0  0  0  0  0  0  0  0  0
    8.3489   -0.7586   18.8082 H   0  0  0  0  0  0  0  0  0  0  0  0
  1  2  2  0
  3  2  1  6
  2 14  1  0
  3  4  1  0
  3  7  1  0
  3 16  1  0
  4  5  1  0
  4 27  1  6
  4 28  1  0
  5  6  1  0
  5 29  1  1
  5 30  1  0
  6  8  1  0
  7  8  2  0
  7 11  1  0
  8  9  1  0
  9 10  2  0
  9 31  1  0
 10 12  1  0
 10 32  1  0
 11 12  2  0
 11 33  1  0
 12 13  1  0
 14 15  1  0
 14 17  1  0
 15 16  1  0
 15 34  1  1
 15 35  1  0
 16 36  1  6
 16 37  1  0
 17 18  2  0
 17 26  1  0
 18 19  1  0
 18 23  1  0
 19 20  2  0
 19 38  1  0
 20 21  1  0
 20 39  1  0
 21 22  2  0
 21 40  1  0
 22 23  1  0
 22 41  1  0
 23 24  2  0
 24 25  1  0
 24 42  1  0
 25 26  2  0
 26 43  1  0
M  END
$$$$
