LIG(A-306)
     RDKit          3D

 41 44  0  0  1  0  0  0  0  0999 V2000
   -9.6668    0.5434  -20.9514 O   0  0  0  0  0  0  0  0  0  0  0  0
   -9.1201   -0.4811  -21.3631 C   0  0  0  0  0  0  0  0  0  0  0  0
   -9.6773   -1.2925  -22.5368 C   0  0  2  0  0  0  0  0  0  0  0  0
   -8.9260   -0.8616  -23.8035 C   0  0  1  0  0  0  0  0  0  0  0  0
   -9.2924    0.5103  -24.1698 N   0  0  1  0  0  0  0  0  0  0  0  0
  -10.6937    0.6086  -24.5718 C   0  0  1  0  0  0  0  0  0  0  0  0
  -11.1691   -1.0745  -22.7223 C   0  0  0  0  0  0  0  0  0  0  0  0
  -11.6325   -0.1160  -23.6392 C   0  0  0  0  0  0  0  0  0  0  0  0
  -13.0000    0.1369  -23.7263 C   0  0  0  0  0  0  0  0  0  0  0  0
  -13.9039   -0.5433  -22.9351 C   0  0  0  0  0  0  0  0  0  0  0  0
  -12.0911   -1.7849  -21.9503 C   0  0  0  0  0  0  0  0  0  0  0  0
  -13.4366   -1.4902  -22.0495 C   0  0  0  0  0  0  0  0  0  0  0  0
  -14.5479   -2.2230  -20.9278 Cl  0  0  0  0  0  0  0  0  0  0  0  0
   -7.9536   -0.9470  -20.8540 N   0  0  0  0  0  0  0  0  0  0  0  0
   -7.1768   -0.3709  -19.8260 C   0  0  0  0  0  0  0  0  0  0  0  0
   -6.0846    0.4836  -20.1791 C   0  0  0  0  0  0  0  0  0  0  0  0
   -5.6741    0.7298  -21.5143 C   0  0  0  0  0  0  0  0  0  0  0  0
   -4.6721    1.6177  -21.7905 C   0  0  0  0  0  0  0  0  0  0  0  0
   -4.0258    2.2963  -20.7681 C   0  0  0  0  0  0  0  0  0  0  0  0
   -4.3806    2.0930  -19.4666 C   0  0  0  0  0  0  0  0  0  0  0  0
   -5.4158    1.1835  -19.1364 C   0  0  0  0  0  0  0  0  0  0  0  0
   -5.8598    0.9689  -17.8093 C   0  0  0  0  0  0  0  0  0  0  0  0
   -6.8584    0.1650  -17.4795 N   0  0  0  0  0  0  0  0  0  0  0  0
   -7.4886   -0.4783  -18.4698 C   0  0  0  0  0  0  0  0  0  0  0  0
   -9.4883   -2.3609  -22.3552 H   0  0  0  0  0  0  0  0  0  0  0  0
   -7.8430   -0.9109  -23.6177 H   0  0  0  0  0  0  0  0  0  0  0  0
   -9.1876   -1.5399  -24.6291 H   0  0  0  0  0  0  0  0  0  0  0  0
   -9.1389    1.1076  -23.3825 H   0  0  0  0  0  0  0  0  0  0  0  0
   -8.7156    0.8072  -24.9308 H   0  0  0  0  0  0  0  0  0  0  0  0
  -10.9766    1.6713  -24.5963 H   0  0  0  0  0  0  0  0  0  0  0  0
  -10.7996    0.1777  -25.5784 H   0  0  0  0  0  0  0  0  0  0  0  0
  -13.3591    0.8780  -24.4251 H   0  0  0  0  0  0  0  0  0  0  0  0
  -14.9613   -0.3366  -23.0089 H   0  0  0  0  0  0  0  0  0  0  0  0
  -11.7535   -2.5608  -21.2791 H   0  0  0  0  0  0  0  0  0  0  0  0
   -7.6037   -1.7950  -21.2518 H   0  0  0  0  0  0  0  0  0  0  0  0
   -6.1605    0.2077  -22.3251 H   0  0  0  0  0  0  0  0  0  0  0  0
   -4.3808    1.7926  -22.8156 H   0  0  0  0  0  0  0  0  0  0  0  0
   -3.2342    2.9920  -21.0045 H   0  0  0  0  0  0  0  0  0  0  0  0
   -3.8684    2.6295  -18.6816 H   0  0  0  0  0  0  0  0  0  0  0  0
   -5.3510    1.4948  -17.0150 H   0  0  0  0  0  0  0  0  0  0  0  0
   -8.3035   -1.1328  -18.1976 H   0  0  0  0  0  0  0  0  0  0  0  0
  1  2  2  0
  2  3  1  0
  2 14  1  0
  3  4  1  0
  3  7  1  0
  3 25  1  1
  4  5  1  0
  4 26  1  1
  4 27  1  0
  5  6  1  0
  5 28  1  1
  5 29  1  0
  6  8  1  0
  6 30  1  6
  6 31  1  0
  7  8  2  0
  7 11  1  0
  8  9  1  0
  9 10  2  0
  9 32  1  0
 10 12  1  0
 10 33  1  0
 11 12  2  0
 11 34  1  0
 12 13  1  0
 14 15  1  0
 14 35  1  0
 15 16  2  0
 15 24  1  0
 16 17  1  0
 16 21  1  0
 17 18  2  0
 17 36  1  0
 18 19  1  0
 18 37  1  0
 19 20  2  0
 19 38  1  0
 20 21  1  0
 20 39  1  0
 21 22  2  0
 22 23  1  0
 22 40  1  0
 23 24  2  0
 24 41  1  0
M  CHG  1   5   1
M  END
$$$$
