LIG(A-305)
     RDKit          3D

 34 35  0  0  0  0  0  0  0  0999 V2000
   14.5098   -0.4653   23.3946 F   0  0  0  0  0  0  0  0  0  0  0  0
   13.5996   -1.2712   22.9078 C   0  0  1  0  0  0  0  0  0  0  0  0
   13.8374   -1.3003   21.5888 F   0  0  0  0  0  0  0  0  0  0  0  0
   13.8646   -2.4852   23.4068 F   0  0  0  0  0  0  0  0  0  0  0  0
   12.2207   -0.8111   23.2420 C   0  0  0  0  0  0  0  0  0  0  0  0
   11.9910   -0.0190   24.3630 C   0  0  0  0  0  0  0  0  0  0  0  0
   10.7011    0.3002   24.7422 C   0  0  0  0  0  0  0  0  0  0  0  0
    9.6299   -0.1708   24.0014 C   0  0  0  0  0  0  0  0  0  0  0  0
   11.1406   -1.2610   22.4952 C   0  0  0  0  0  0  0  0  0  0  0  0
    9.8387   -0.9549   22.8724 C   0  0  0  0  0  0  0  0  0  0  0  0
    8.6775   -1.4848   22.0726 C   0  0  1  0  0  0  0  0  0  0  0  0
    8.2014   -0.4308   21.0956 C   0  0  0  0  0  0  0  0  0  0  0  0
    8.8485    0.5891   20.8734 O   0  0  0  0  0  0  0  0  0  0  0  0
    7.0253   -0.7167   20.5058 N   0  0  0  0  0  0  0  0  0  0  0  0
    6.4362    0.0283   19.4709 C   0  0  0  0  0  0  0  0  0  0  0  0
    5.2973    0.8094   19.7330 C   0  0  0  0  0  0  0  0  0  0  0  0
    4.7236    0.9445   21.1201 C   0  0  1  0  0  0  0  0  0  0  0  0
    6.9950    0.0432   18.1978 C   0  0  0  0  0  0  0  0  0  0  0  0
    6.4979    0.7772   17.1958 N   0  0  0  0  0  0  0  0  0  0  0  0
    5.4070    1.5153   17.4509 C   0  0  0  0  0  0  0  0  0  0  0  0
    4.7772    1.5474   18.6770 C   0  0  0  0  0  0  0  0  0  0  0  0
   12.8263    0.3487   24.9403 H   0  0  0  0  0  0  0  0  0  0  0  0
   10.5289    0.9148   25.6134 H   0  0  0  0  0  0  0  0  0  0  0  0
    8.6223    0.0735   24.3037 H   0  0  0  0  0  0  0  0  0  0  0  0
   11.3141   -1.8560   21.6107 H   0  0  0  0  0  0  0  0  0  0  0  0
    8.9950   -2.3799   21.5176 H   0  0  0  0  0  0  0  0  0  0  0  0
    7.8553   -1.7485   22.7540 H   0  0  0  0  0  0  0  0  0  0  0  0
    6.5319   -1.5237   20.8303 H   0  0  0  0  0  0  0  0  0  0  0  0
    5.4796    1.3812   21.7892 H   0  0  0  0  0  0  0  0  0  0  0  0
    3.8398    1.5987   21.0890 H   0  0  0  0  0  0  0  0  0  0  0  0
    4.4321   -0.0479   21.4944 H   0  0  0  0  0  0  0  0  0  0  0  0
    7.8681   -0.5640   18.0097 H   0  0  0  0  0  0  0  0  0  0  0  0
    4.9999    2.1173   16.6521 H   0  0  0  0  0  0  0  0  0  0  0  0
    3.8862    2.1418   18.8155 H   0  0  0  0  0  0  0  0  0  0  0  0
  2  1  1  1
  2  3  1  0
  2  4  1  0
  2  5  1  0
  5  6  2  0
  5  9  1  0
  6  7  1  0
  6 22  1  0
  7  8  2  0
  7 23  1  0
  8 10  1  0
  8 24  1  0
  9 10  2  0
  9 25  1  0
 10 11  1  0
 11 12  1  0
 11 26  1  6
 11 27  1  0
 12 13  2  0
 12 14  1  0
 14 15  1  0
 14 28  1  0
 15 16  2  0
 15 18  1  0
 16 17  1  0
 16 21  1  0
 17 29  1  1
 17 30  1  0
 17 31  1  0
 18 19  2  0
 18 32  1  0
 19 20  1  0
 20 21  2  0
 20 33  1  0
 21 34  1  0
M  END
$$$$
