LIG(A-306)
     RDKit          3D

 43 46  0  0  1  0  0  0  0  0999 V2000
    9.1420    1.2253   21.0819 O   0  0  0  0  0  0  0  0  0  0  0  0
    8.6347    0.2081   21.5448 C   0  0  0  0  0  0  0  0  0  0  0  0
    9.1698   -0.4608   22.8602 C   0  0  1  0  0  0  0  0  0  0  0  0
   10.6654   -0.3107   23.0389 C   0  0  0  0  0  0  0  0  0  0  0  0
   11.5530   -0.9920   22.2112 C   0  0  0  0  0  0  0  0  0  0  0  0
   12.9146   -0.8205   22.3677 C   0  0  0  0  0  0  0  0  0  0  0  0
   14.0101   -1.5443   21.2353 Cl  0  0  0  0  0  0  0  0  0  0  0  0
   13.3937    0.0114   23.3591 C   0  0  0  0  0  0  0  0  0  0  0  0
   14.7293    0.1727   23.4937 F   0  0  0  0  0  0  0  0  0  0  0  0
   12.5531    0.7058   24.1926 C   0  0  0  0  0  0  0  0  0  0  0  0
   11.1915    0.5402   24.0231 C   0  0  0  0  0  0  0  0  0  0  0  0
   10.3989    1.2450   24.8946 O   0  0  0  0  0  0  0  0  0  0  0  0
    9.0692    1.5084   24.4151 C   0  0  1  0  0  0  0  0  0  0  0  0
    8.3813    0.2298   23.9868 C   0  0  2  0  0  0  0  0  0  0  0  0
    8.8372   -1.8469   22.6766 O   0  0  0  0  0  0  0  0  0  0  0  0
    8.9957   -2.7079   23.8103 C   0  0  1  0  0  0  0  0  0  0  0  0
    7.5491   -0.3922   21.0101 N   0  0  0  0  0  0  0  0  0  0  0  0
    6.7847    0.0504   19.9083 C   0  0  0  0  0  0  0  0  0  0  0  0
    5.6397    0.8742   20.1571 C   0  0  0  0  0  0  0  0  0  0  0  0
    5.1941    1.2338   21.4558 C   0  0  0  0  0  0  0  0  0  0  0  0
    4.1140    2.0542   21.6256 C   0  0  0  0  0  0  0  0  0  0  0  0
    3.4255    2.5541   20.5304 C   0  0  0  0  0  0  0  0  0  0  0  0
    3.8130    2.2346   19.2614 C   0  0  0  0  0  0  0  0  0  0  0  0
    4.9291    1.3879   19.0378 C   0  0  0  0  0  0  0  0  0  0  0  0
    5.3946    1.0445   17.7459 C   0  0  0  0  0  0  0  0  0  0  0  0
    6.4485    0.2756   17.5138 N   0  0  0  0  0  0  0  0  0  0  0  0
    7.1130   -0.2016   18.5759 C   0  0  0  0  0  0  0  0  0  0  0  0
   11.1769   -1.6551   21.4462 H   0  0  0  0  0  0  0  0  0  0  0  0
   12.9435    1.3612   24.9572 H   0  0  0  0  0  0  0  0  0  0  0  0
    8.4842    1.9793   25.2188 H   0  0  0  0  0  0  0  0  0  0  0  0
    9.1261    2.1913   23.5547 H   0  0  0  0  0  0  0  0  0  0  0  0
    8.3132   -0.4499   24.8490 H   0  0  0  0  0  0  0  0  0  0  0  0
    7.3695    0.4673   23.6264 H   0  0  0  0  0  0  0  0  0  0  0  0
    8.7090   -3.7336   23.5353 H   0  0  0  0  0  0  0  0  0  0  0  0
   10.0464   -2.6958   24.1357 H   0  0  0  0  0  0  0  0  0  0  0  0
    8.3536   -2.3553   24.6309 H   0  0  0  0  0  0  0  0  0  0  0  0
    7.2542   -1.2444   21.4423 H   0  0  0  0  0  0  0  0  0  0  0  0
    5.7156    0.8539   22.3218 H   0  0  0  0  0  0  0  0  0  0  0  0
    3.7934    2.3158   22.6231 H   0  0  0  0  0  0  0  0  0  0  0  0
    2.5751    3.2021   20.6831 H   0  0  0  0  0  0  0  0  0  0  0  0
    3.2646    2.6302   18.4193 H   0  0  0  0  0  0  0  0  0  0  0  0
    4.8562    1.4342   16.8946 H   0  0  0  0  0  0  0  0  0  0  0  0
    7.9699   -0.8307   18.3851 H   0  0  0  0  0  0  0  0  0  0  0  0
  1  2  2  0
  2  3  1  0
  2 17  1  0
  3  4  1  0
  3 14  1  0
  3 15  1  6
  4  5  2  0
  4 11  1  0
  5  6  1  0
  5 28  1  0
  6  7  1  0
  6  8  2  0
  8  9  1  0
  8 10  1  0
 10 11  2  0
 10 29  1  0
 11 12  1  0
 12 13  1  0
 13 14  1  0
 13 30  1  1
 13 31  1  0
 14 32  1  1
 14 33  1  0
 15 16  1  0
 16 34  1  6
 16 35  1  0
 16 36  1  0
 17 18  1  0
 17 37  1  0
 18 19  2  0
 18 27  1  0
 19 20  1  0
 19 24  1  0
 20 21  2  0
 20 38  1  0
 21 22  1  0
 21 39  1  0
 22 23  2  0
 22 40  1  0
 23 24  1  0
 23 41  1  0
 24 25  2  0
 25 26  1  0
 25 42  1  0
 26 27  2  0
 27 43  1  0
M  END
$$$$
