LIG(A-306)
     RDKit          3D

 33 35  0  0  0  0  0  0  0  0999 V2000
    8.8898    0.8120   21.3730 O   0  0  0  0  0  0  0  0  0  0  0  0
    8.4249   -0.3111   21.5859 C   0  0  0  0  0  0  0  0  0  0  0  0
    9.1110   -1.3051   22.5049 C   0  0  1  0  0  0  0  0  0  0  0  0
   10.5150   -0.9070   22.9089 C   0  0  0  0  0  0  0  0  0  0  0  0
   10.7319   -0.0420   23.9739 C   0  0  0  0  0  0  0  0  0  0  0  0
   11.9989    0.4591   24.2369 C   0  0  0  0  0  0  0  0  0  0  0  0
   13.0709    0.1012   23.4369 C   0  0  0  0  0  0  0  0  0  0  0  0
   11.6050   -1.3169   22.1468 C   0  0  0  0  0  0  0  0  0  0  0  0
   12.8590   -0.7978   22.4118 C   0  0  0  0  0  0  0  0  0  0  0  0
   14.2020   -1.2847   21.4138 Cl  0  0  0  0  0  0  0  0  0  0  0  0
    7.2909   -0.7751   21.0069 N   0  0  0  0  0  0  0  0  0  0  0  0
    6.5309   -0.1931   19.9700 C   0  0  0  0  0  0  0  0  0  0  0  0
    5.3978    0.6178   20.3150 C   0  0  0  0  0  0  0  0  0  0  0  0
    4.9048    0.7737   21.6300 C   0  0  0  0  0  0  0  0  0  0  0  0
    3.8348    1.5876   21.8611 C   0  0  0  0  0  0  0  0  0  0  0  0
    3.2527    2.2556   20.7821 C   0  0  0  0  0  0  0  0  0  0  0  0
    3.6607    2.1477   19.5251 N   0  0  0  0  0  0  0  0  0  0  0  0
    4.7318    1.3218   19.2771 C   0  0  0  0  0  0  0  0  0  0  0  0
    5.2437    1.1228   17.9641 C   0  0  0  0  0  0  0  0  0  0  0  0
    6.2728    0.3599   17.6340 N   0  0  0  0  0  0  0  0  0  0  0  0
    6.8979   -0.2821   18.6270 C   0  0  0  0  0  0  0  0  0  0  0  0
    8.5050   -1.4072   23.4172 H   0  0  0  0  0  0  0  0  0  0  0  0
    9.1622   -2.2747   21.9881 H   0  0  0  0  0  0  0  0  0  0  0  0
    9.9038    0.2442   24.6054 H   0  0  0  0  0  0  0  0  0  0  0  0
   12.1495    1.1310   25.0689 H   0  0  0  0  0  0  0  0  0  0  0  0
   14.0523    0.5169   23.6116 H   0  0  0  0  0  0  0  0  0  0  0  0
   11.4721   -2.0366   21.3526 H   0  0  0  0  0  0  0  0  0  0  0  0
    6.9473   -1.6449   21.3613 H   0  0  0  0  0  0  0  0  0  0  0  0
    5.3739    0.2500   22.4499 H   0  0  0  0  0  0  0  0  0  0  0  0
    3.4450    1.7129   22.8605 H   0  0  0  0  0  0  0  0  0  0  0  0
    2.4133    2.9041   20.9851 H   0  0  0  0  0  0  0  0  0  0  0  0
    4.7446    1.6443   17.1608 H   0  0  0  0  0  0  0  0  0  0  0  0
    7.7399   -0.9089   18.3730 H   0  0  0  0  0  0  0  0  0  0  0  0
  1  2  2  0
  2  3  1  0
  2 11  1  0
  3  4  1  0
  3 22  1  1
  3 23  1  0
  4  5  2  0
  4  8  1  0
  5  6  1  0
  5 24  1  0
  6  7  2  0
  6 25  1  0
  7  9  1  0
  7 26  1  0
  8  9  2  0
  8 27  1  0
  9 10  1  0
 11 12  1  0
 11 28  1  0
 12 13  2  0
 12 21  1  0
 13 14  1  0
 13 18  1  0
 14 15  2  0
 14 29  1  0
 15 16  1  0
 15 30  1  0
 16 17  2  0
 16 31  1  0
 17 18  1  0
 18 19  2  0
 19 20  1  0
 19 32  1  0
 20 21  2  0
 21 33  1  0
M  END
$$$$
