LIG(A-306)
     RDKit          3D

 36 38  0  0  1  0  0  0  0  0999 V2000
  -14.7019   -2.3066  -20.5539 Cl  0  0  0  0  0  0  0  0  0  0  0  0
  -13.7204   -1.4321  -21.7012 C   0  0  0  0  0  0  0  0  0  0  0  0
  -14.3183   -0.5129  -22.5374 C   0  0  0  0  0  0  0  0  0  0  0  0
  -13.5265    0.2700  -23.3588 C   0  0  0  0  0  0  0  0  0  0  0  0
  -12.3538   -1.6133  -21.6836 C   0  0  0  0  0  0  0  0  0  0  0  0
  -11.5390   -0.8285  -22.4940 C   0  0  0  0  0  0  0  0  0  0  0  0
  -12.1468    0.1117  -23.3361 C   0  0  0  0  0  0  0  0  0  0  0  0
  -11.4471    0.8911  -24.2283 O   0  0  0  0  0  0  0  0  0  0  0  0
   -9.9964    0.7697  -24.2486 C   0  0  1  0  0  0  0  0  0  0  0  0
   -9.4862   -0.5987  -23.8688 C   0  0  1  0  0  0  0  0  0  0  0  0
  -10.0324   -1.0041  -22.4945 C   0  0  1  0  0  0  0  0  0  0  0  0
   -9.3891   -0.2425  -21.3307 C   0  0  0  0  0  0  0  0  0  0  0  0
   -9.8481    0.8192  -20.9066 O   0  0  0  0  0  0  0  0  0  0  0  0
   -8.2878   -0.8408  -20.8051 N   0  0  0  0  0  0  0  0  0  0  0  0
   -7.4523   -0.3222  -19.7845 C   0  0  0  0  0  0  0  0  0  0  0  0
   -6.2532    0.3232  -20.1428 C   0  0  0  0  0  0  0  0  0  0  0  0
   -5.7899    0.4039  -21.5751 C   0  0  1  0  0  0  0  0  0  0  0  0
   -7.8056   -0.3529  -18.4321 C   0  0  0  0  0  0  0  0  0  0  0  0
   -7.0791    0.2142  -17.4571 N   0  0  0  0  0  0  0  0  0  0  0  0
   -5.9491    0.8297  -17.8165 C   0  0  0  0  0  0  0  0  0  0  0  0
   -5.5056    0.9071  -19.1218 C   0  0  0  0  0  0  0  0  0  0  0  0
  -15.3928   -0.4052  -22.5510 H   0  0  0  0  0  0  0  0  0  0  0  0
  -13.9787    1.0000  -24.0138 H   0  0  0  0  0  0  0  0  0  0  0  0
  -11.9161   -2.3635  -21.0416 H   0  0  0  0  0  0  0  0  0  0  0  0
   -9.6450    0.9993  -25.2653 H   0  0  0  0  0  0  0  0  0  0  0  0
   -9.5788    1.5022  -23.5422 H   0  0  0  0  0  0  0  0  0  0  0  0
   -9.8149   -1.3310  -24.6210 H   0  0  0  0  0  0  0  0  0  0  0  0
   -8.3870   -0.5794  -23.8319 H   0  0  0  0  0  0  0  0  0  0  0  0
   -9.8176   -2.0735  -22.3525 H   0  0  0  0  0  0  0  0  0  0  0  0
   -8.0425   -1.7366  -21.1756 H   0  0  0  0  0  0  0  0  0  0  0  0
   -6.5439    0.9338  -22.1757 H   0  0  0  0  0  0  0  0  0  0  0  0
   -4.8354    0.9487  -21.6215 H   0  0  0  0  0  0  0  0  0  0  0  0
   -5.6519   -0.6121  -21.9735 H   0  0  0  0  0  0  0  0  0  0  0  0
   -8.7168   -0.8628  -18.1561 H   0  0  0  0  0  0  0  0  0  0  0  0
   -5.3507    1.2915  -17.0450 H   0  0  0  0  0  0  0  0  0  0  0  0
   -4.5822    1.4184  -19.3509 H   0  0  0  0  0  0  0  0  0  0  0  0
  1  2  1  0
  2  3  2  0
  2  5  1  0
  3  4  1  0
  3 22  1  0
  4  7  2  0
  4 23  1  0
  5  6  2  0
  5 24  1  0
  6  7  1  0
  6 11  1  0
  7  8  1  0
  8  9  1  0
  9 10  1  0
  9 25  1  6
  9 26  1  0
 10 11  1  0
 10 27  1  6
 10 28  1  0
 11 12  1  0
 11 29  1  1
 12 13  2  0
 12 14  1  0
 14 15  1  0
 14 30  1  0
 15 16  2  0
 15 18  1  0
 16 17  1  0
 16 21  1  0
 17 31  1  6
 17 32  1  0
 17 33  1  0
 18 19  2  0
 18 34  1  0
 19 20  1  0
 20 21  2  0
 20 35  1  0
 21 36  1  0
M  END
$$$$
