LIG(A-305)
     RDKit          3D

 35 36  0  0  0  0  0  0  0  0999 V2000
    6.7975   -2.6763   21.0316 N   0  0  0  0  0  0  0  0  0  0  0  0
    7.1173   -2.6474   18.5956 C   0  0  1  0  0  0  0  0  0  0  0  0
    5.8055   -4.2484   19.7338 O   0  0  0  0  0  0  0  0  0  0  0  0
    6.5154   -3.2544   19.8377 C   0  0  0  0  0  0  0  0  0  0  0  0
   11.8127   -1.8080   22.8831 C   0  0  0  0  0  0  0  0  0  0  0  0
    8.7816   -1.6802   21.9924 C   0  0  1  0  0  0  0  0  0  0  0  0
    7.4975   -1.4143   21.2425 C   0  0  2  0  0  0  0  0  0  0  0  0
    6.4577   -3.2862   22.3177 C   0  0  1  0  0  0  0  0  0  0  0  0
    7.7157   -3.5301   23.1186 C   0  0  1  0  0  0  0  0  0  0  0  0
    9.7348   -2.6040   24.0323 C   0  0  1  0  0  0  0  0  0  0  0  0
   10.8377   -1.5930   23.8412 C   0  0  0  0  0  0  0  0  0  0  0  0
   10.9008   -0.4410   24.6071 C   0  0  0  0  0  0  0  0  0  0  0  0
   11.9197    0.4761   24.4140 C   0  0  0  0  0  0  0  0  0  0  0  0
   12.8946    0.2550   23.4609 C   0  0  0  0  0  0  0  0  0  0  0  0
   12.8226   -0.8900   22.7010 C   0  0  0  0  0  0  0  0  0  0  0  0
    8.5047   -2.3071   23.2884 N   0  0  1  0  0  0  0  0  0  0  0  0
   14.0275   -1.2100   21.4869 Cl  0  0  0  0  0  0  0  0  0  0  0  0
    6.8073   -3.2295   17.7152 H   0  0  0  0  0  0  0  0  0  0  0  0
    6.7697   -1.6091   18.4895 H   0  0  0  0  0  0  0  0  0  0  0  0
    8.2143   -2.6605   18.6759 H   0  0  0  0  0  0  0  0  0  0  0  0
   11.7813   -2.7002   22.2753 H   0  0  0  0  0  0  0  0  0  0  0  0
    9.4162   -2.3512   21.3949 H   0  0  0  0  0  0  0  0  0  0  0  0
    9.3075   -0.7281   22.1568 H   0  0  0  0  0  0  0  0  0  0  0  0
    6.8623   -0.7344   21.8293 H   0  0  0  0  0  0  0  0  0  0  0  0
    7.7273   -0.9537   20.2703 H   0  0  0  0  0  0  0  0  0  0  0  0
    5.7938   -2.6112   22.8776 H   0  0  0  0  0  0  0  0  0  0  0  0
    5.9447   -4.2436   22.1433 H   0  0  0  0  0  0  0  0  0  0  0  0
    7.4360   -3.9130   24.1111 H   0  0  0  0  0  0  0  0  0  0  0  0
    8.3295   -4.2789   22.5963 H   0  0  0  0  0  0  0  0  0  0  0  0
   10.1071   -3.5856   23.7039 H   0  0  0  0  0  0  0  0  0  0  0  0
    9.4877   -2.6453   25.1035 H   0  0  0  0  0  0  0  0  0  0  0  0
   10.1494   -0.2566   25.3607 H   0  0  0  0  0  0  0  0  0  0  0  0
   11.9526    1.3731   25.0144 H   0  0  0  0  0  0  0  0  0  0  0  0
   13.6955    0.9648   23.3153 H   0  0  0  0  0  0  0  0  0  0  0  0
    7.9641   -1.6649   23.8318 H   0  0  0  0  0  0  0  0  0  0  0  0
  1  4  1  0
  1  7  1  0
  1  8  1  0
  2  4  1  0
  2 18  1  6
  2 19  1  0
  2 20  1  0
  3  4  2  0
  5 11  2  0
  5 15  1  0
  5 21  1  0
  6  7  1  0
  6 16  1  0
  6 22  1  6
  6 23  1  0
  7 24  1  1
  7 25  1  0
  8  9  1  0
  8 26  1  1
  8 27  1  0
  9 16  1  0
  9 28  1  1
  9 29  1  0
 10 11  1  0
 10 16  1  0
 10 30  1  6
 10 31  1  0
 11 12  1  0
 12 13  2  0
 12 32  1  0
 13 14  1  0
 13 33  1  0
 14 15  2  0
 14 34  1  0
 15 17  1  0
 16 35  1  1
M  CHG  1  16   1
M  END
$$$$
