LIG(A-307)
     RDKit          3D

 62 67  0  0  1  0  0  0  0  0999 V2000
    9.4479    1.4603   21.3926 O   0  0  0  0  0  0  0  0  0  0  0  0
    9.0648    0.3802   21.8163 C   0  0  0  0  0  0  0  0  0  0  0  0
    8.0123   -0.3369   21.3266 N   0  0  0  0  0  0  0  0  0  0  0  0
    7.1388    0.0868   20.2718 C   0  0  0  0  0  0  0  0  0  0  0  0
    5.9481    0.8356   20.5139 C   0  0  0  0  0  0  0  0  0  0  0  0
    5.4894    1.2089   21.8048 C   0  0  0  0  0  0  0  0  0  0  0  0
    4.3604    1.9670   21.9597 C   0  0  0  0  0  0  0  0  0  0  0  0
    3.6453    2.4054   20.8528 C   0  0  0  0  0  0  0  0  0  0  0  0
    4.0411    2.0687   19.5891 C   0  0  0  0  0  0  0  0  0  0  0  0
    5.1895    1.2614   19.3841 C   0  0  0  0  0  0  0  0  0  0  0  0
    5.6466    0.8782   18.0984 C   0  0  0  0  0  0  0  0  0  0  0  0
    6.7473    0.1685   17.8805 N   0  0  0  0  0  0  0  0  0  0  0  0
    7.4649   -0.1973   18.9511 C   0  0  0  0  0  0  0  0  0  0  0  0
    7.8462   -1.6382   21.9987 C   0  0  1  0  0  0  0  0  0  0  0  0
    9.1846   -1.8415   22.7058 C   0  0  1  0  0  0  0  0  0  0  0  0
    9.6664   -0.4019   22.9936 C   0  0  1  0  0  0  0  0  0  0  0  0
   11.1941   -0.2555   23.0553 C   0  0  0  0  0  0  0  0  0  0  0  0
   11.7711    0.6259   23.9846 C   0  0  0  0  0  0  0  0  0  0  0  0
   13.1465    0.8580   23.9375 C   0  0  0  0  0  0  0  0  0  0  0  0
   13.9436    0.2342   22.9926 C   0  0  0  0  0  0  0  0  0  0  0  0
   12.0086   -0.9269   22.1403 C   0  0  0  0  0  0  0  0  0  0  0  0
   13.3651   -0.6573   22.1135 C   0  0  0  0  0  0  0  0  0  0  0  0
   14.3579   -1.4327   20.9056 Cl  0  0  0  0  0  0  0  0  0  0  0  0
    8.9704    0.1587   24.2608 C   0  0  1  0  0  0  0  0  0  0  0  0
    9.5204    1.4732   24.5880 N   0  0  2  0  0  0  0  0  0  0  0  0
   10.9261    1.3490   25.0106 C   0  0  2  0  0  0  0  0  0  0  0  0
    8.6980    2.2663   25.4977 C   0  0  1  0  0  0  0  0  0  0  0  0
    7.6529    3.1095   24.7830 C   0  0  0  0  0  0  0  0  0  0  0  0
    6.5339    3.2895   25.2667 O   0  0  0  0  0  0  0  0  0  0  0  0
    8.0313    3.6057   23.6059 N   0  0  0  0  0  0  0  0  0  0  0  0
    7.1644    4.4272   22.7678 C   0  0  1  0  0  0  0  0  0  0  0  0
    7.1481    5.8787   23.2139 C   0  0  2  0  0  0  0  0  0  0  0  0
    6.8473    6.9204   22.1851 C   0  0  1  0  0  0  0  0  0  0  0  0
    8.2325    6.7845   22.7320 C   0  0  2  0  0  0  0  0  0  0  0  0
    6.0398    0.8897   22.6775 H   0  0  0  0  0  0  0  0  0  0  0  0
    4.0225    2.2267   22.9521 H   0  0  0  0  0  0  0  0  0  0  0  0
    2.7673    3.0188   20.9922 H   0  0  0  0  0  0  0  0  0  0  0  0
    3.4749    2.4201   18.7392 H   0  0  0  0  0  0  0  0  0  0  0  0
    5.0629    1.1825   17.2422 H   0  0  0  0  0  0  0  0  0  0  0  0
    8.3704   -0.7586   18.7734 H   0  0  0  0  0  0  0  0  0  0  0  0
    7.0189   -1.6050   22.7230 H   0  0  0  0  0  0  0  0  0  0  0  0
    7.6613   -2.4387   21.2674 H   0  0  0  0  0  0  0  0  0  0  0  0
    9.0530   -2.4058   23.6408 H   0  0  0  0  0  0  0  0  0  0  0  0
    9.8961   -2.3709   22.0551 H   0  0  0  0  0  0  0  0  0  0  0  0
   13.5960    1.5346   24.6492 H   0  0  0  0  0  0  0  0  0  0  0  0
   15.0023    0.4426   22.9448 H   0  0  0  0  0  0  0  0  0  0  0  0
   11.5831   -1.6498   21.4601 H   0  0  0  0  0  0  0  0  0  0  0  0
    7.8905    0.2511   24.0735 H   0  0  0  0  0  0  0  0  0  0  0  0
    9.1390   -0.5276   25.1037 H   0  0  0  0  0  0  0  0  0  0  0  0
    9.5413    1.9812   23.7269 H   0  0  0  0  0  0  0  0  0  0  0  0
   11.3400    2.3565   25.1635 H   0  0  0  0  0  0  0  0  0  0  0  0
   10.9630    0.7898   25.9572 H   0  0  0  0  0  0  0  0  0  0  0  0
    8.1825    1.5827   26.1883 H   0  0  0  0  0  0  0  0  0  0  0  0
    9.3566    2.9369   26.0691 H   0  0  0  0  0  0  0  0  0  0  0  0
    8.9554    3.4051   23.2807 H   0  0  0  0  0  0  0  0  0  0  0  0
    7.5254    4.3792   21.7298 H   0  0  0  0  0  0  0  0  0  0  0  0
    6.1404    4.0288   22.8187 H   0  0  0  0  0  0  0  0  0  0  0  0
    6.7662    6.0671   24.2281 H   0  0  0  0  0  0  0  0  0  0  0  0
    6.6337    6.6237   21.1477 H   0  0  0  0  0  0  0  0  0  0  0  0
    6.2344    7.7946   22.4501 H   0  0  0  0  0  0  0  0  0  0  0  0
    9.0381    6.3882   22.0965 H   0  0  0  0  0  0  0  0  0  0  0  0
    8.6389    7.5591   23.3989 H   0  0  0  0  0  0  0  0  0  0  0  0
  1  2  2  0
  2  3  1  0
 16  2  1  6
  3  4  1  0
  3 14  1  0
  4  5  2  0
  4 13  1  0
  5  6  1  0
  5 10  1  0
  6  7  2  0
  6 35  1  0
  7  8  1  0
  7 36  1  0
  8  9  2  0
  8 37  1  0
  9 10  1  0
  9 38  1  0
 10 11  2  0
 11 12  1  0
 11 39  1  0
 12 13  2  0
 13 40  1  0
 14 15  1  0
 14 41  1  1
 14 42  1  0
 15 16  1  0
 15 43  1  1
 15 44  1  0
 16 17  1  0
 16 24  1  0
 17 18  2  0
 17 21  1  0
 18 19  1  0
 18 26  1  0
 19 20  2  0
 19 45  1  0
 20 22  1  0
 20 46  1  0
 21 22  2  0
 21 47  1  0
 22 23  1  0
 24 25  1  0
 24 48  1  6
 24 49  1  0
 25 26  1  0
 25 27  1  0
 25 50  1  6
 26 51  1  1
 26 52  1  0
 27 28  1  0
 27 53  1  1
 27 54  1  0
 28 29  2  0
 28 30  1  0
 30 31  1  0
 30 55  1  0
 31 32  1  0
 31 56  1  6
 31 57  1  0
 32 33  1  0
 32 34  1  0
 32 58  1  1
 33 34  1  0
 33 59  1  6
 33 60  1  0
 34 61  1  6
 34 62  1  0
M  CHG  1  25   1
M  END
$$$$
