LIG(A-305)
     RDKit          3D

 50 53  0  0  0  0  0  0  0  0999 V2000
    9.3874    1.3553   21.0883 O   0  0  0  0  0  0  0  0  0  0  0  0
    9.1154    0.2904   21.6304 C   0  0  0  0  0  0  0  0  0  0  0  0
    8.1332   -0.6726   20.9906 C   0  0  1  0  0  0  0  0  0  0  0  0
    7.1981    0.0015   20.0147 C   0  0  0  0  0  0  0  0  0  0  0  0
    7.4749    0.0163   18.6566 C   0  0  0  0  0  0  0  0  0  0  0  0
    6.6538    0.5304   17.7317 N   0  0  0  0  0  0  0  0  0  0  0  0
    5.5000    1.0595   18.1598 C   0  0  0  0  0  0  0  0  0  0  0  0
    5.1341    1.1056   19.4909 C   0  0  0  0  0  0  0  0  0  0  0  0
    6.0012    0.5706   20.4248 C   0  0  0  0  0  0  0  0  0  0  0  0
    9.6995   -0.0916   22.8023 N   0  0  0  0  0  0  0  0  0  0  0  0
   10.9086    0.6033   23.2281 C   0  0  1  0  0  0  0  0  0  0  0  0
   12.0586   -0.3357   23.4370 C   0  0  0  0  0  0  0  0  0  0  0  0
   12.9084   -0.9389   22.4599 C   0  0  0  0  0  0  0  0  0  0  0  0
   13.7114   -1.7909   23.1579 C   0  0  0  0  0  0  0  0  0  0  0  0
   12.3417   -0.7847   24.6700 N   0  0  0  0  0  0  0  0  0  0  0  0
   13.3486   -1.6798   24.4819 N   0  0  0  0  0  0  0  0  0  0  0  0
   13.8897   -2.3988   25.6279 C   0  0  1  0  0  0  0  0  0  0  0  0
    9.2035   -1.1515   23.6255 C   0  0  0  0  0  0  0  0  0  0  0  0
    9.5934   -2.4735   23.3975 C   0  0  0  0  0  0  0  0  0  0  0  0
    9.2274   -3.4694   24.2856 C   0  0  0  0  0  0  0  0  0  0  0  0
    8.4676   -3.1803   25.4197 C   0  0  0  0  0  0  0  0  0  0  0  0
    8.0527   -1.8622   25.6157 C   0  0  0  0  0  0  0  0  0  0  0  0
    8.4107   -0.8603   24.7345 C   0  0  0  0  0  0  0  0  0  0  0  0
    8.1646   -4.2302   26.4228 C   0  0  0  0  0  0  0  0  0  0  0  0
    9.1426   -5.1293   26.6507 N   0  0  0  0  0  0  0  0  0  0  0  0
    8.9406   -6.0332   27.6268 C   0  0  0  0  0  0  0  0  0  0  0  0
    7.7937   -6.0890   28.3980 C   0  0  0  0  0  0  0  0  0  0  0  0
    6.7958   -5.1729   28.1431 C   0  0  0  0  0  0  0  0  0  0  0  0
    6.9707   -4.2320   27.1410 C   0  0  0  0  0  0  0  0  0  0  0  0
    8.7005   -1.4475   20.4544 H   0  0  0  0  0  0  0  0  0  0  0  0
    7.5333   -1.1408   21.7848 H   0  0  0  0  0  0  0  0  0  0  0  0
    8.4088   -0.4123   18.3243 H   0  0  0  0  0  0  0  0  0  0  0  0
    4.8215    1.4708   17.4271 H   0  0  0  0  0  0  0  0  0  0  0  0
    4.1963    1.5476   19.7936 H   0  0  0  0  0  0  0  0  0  0  0  0
    5.7470    0.5956   21.4741 H   0  0  0  0  0  0  0  0  0  0  0  0
   11.1860    1.3367   22.4565 H   0  0  0  0  0  0  0  0  0  0  0  0
   10.7022    1.1262   24.1736 H   0  0  0  0  0  0  0  0  0  0  0  0
   12.9135   -0.7583   21.3951 H   0  0  0  0  0  0  0  0  0  0  0  0
   14.4823   -2.4290   22.7517 H   0  0  0  0  0  0  0  0  0  0  0  0
   14.6766   -3.0890   25.2900 H   0  0  0  0  0  0  0  0  0  0  0  0
   14.3151   -1.6802   26.3439 H   0  0  0  0  0  0  0  0  0  0  0  0
   13.0858   -2.9698   26.1152 H   0  0  0  0  0  0  0  0  0  0  0  0
   10.1819   -2.7188   22.5258 H   0  0  0  0  0  0  0  0  0  0  0  0
    9.5350   -4.4876   24.0979 H   0  0  0  0  0  0  0  0  0  0  0  0
    7.4405   -1.6211   26.4720 H   0  0  0  0  0  0  0  0  0  0  0  0
    8.0752    0.1519   24.9055 H   0  0  0  0  0  0  0  0  0  0  0  0
    9.7189   -6.7568   27.8193 H   0  0  0  0  0  0  0  0  0  0  0  0
    7.6834   -6.8287   29.1771 H   0  0  0  0  0  0  0  0  0  0  0  0
    5.8834   -5.1884   28.7207 H   0  0  0  0  0  0  0  0  0  0  0  0
    6.1956   -3.5131   26.9206 H   0  0  0  0  0  0  0  0  0  0  0  0
  1  2  2  0
  2  3  1  0
  2 10  1  0
  3  4  1  0
  3 30  1  6
  3 31  1  0
  4  5  2  0
  4  9  1  0
  5  6  1  0
  5 32  1  0
  6  7  2  0
  7  8  1  0
  7 33  1  0
  8  9  2  0
  8 34  1  0
  9 35  1  0
 10 11  1  0
 10 18  1  0
 11 12  1  0
 11 36  1  6
 11 37  1  0
 12 13  1  0
 12 15  2  0
 13 14  2  0
 13 38  1  0
 14 16  1  0
 14 39  1  0
 15 16  1  0
 16 17  1  0
 17 40  1  6
 17 41  1  0
 17 42  1  0
 18 19  2  0
 18 23  1  0
 19 20  1  0
 19 43  1  0
 20 21  2  0
 20 44  1  0
 21 22  1  0
 21 24  1  0
 22 23  2  0
 22 45  1  0
 23 46  1  0
 24 25  2  0
 24 29  1  0
 25 26  1  0
 26 27  2  0
 26 47  1  0
 27 28  1  0
 27 48  1  0
 28 29  2  0
 28 49  1  0
 29 50  1  0
M  END
$$$$
