LIG(A-306)
     RDKit          3D

 55 58  0  0  1  0  0  0  0  0999 V2000
   10.4827    2.6521   24.7370 O   0  0  0  0  0  0  0  0  0  0  0  0
   10.2087    1.5291   24.3579 C   0  0  0  0  0  0  0  0  0  0  0  0
    8.9417    1.0071   24.4918 N   0  0  0  0  0  0  0  0  0  0  0  0
    8.0187    1.6140   25.4338 C   0  0  1  0  0  0  0  0  0  0  0  0
    7.2686    2.8580   24.9828 C   0  0  0  0  0  0  0  0  0  0  0  0
    6.2226    3.2019   25.5317 O   0  0  0  0  0  0  0  0  0  0  0  0
    7.8197    3.5320   23.9729 N   0  0  0  0  0  0  0  0  0  0  0  0
    7.2688    3.5231   22.6258 C   0  0  1  0  0  0  0  0  0  0  0  0
    6.2487    4.6171   22.4248 C   0  0  1  0  0  0  0  0  0  0  0  0
    6.8707    5.9961   22.4949 C   0  0  1  0  0  0  0  0  0  0  0  0
   11.1908    0.7092   23.6289 C   0  0  0  0  0  0  0  0  0  0  0  0
   12.5118    1.1523   23.5331 C   0  0  0  0  0  0  0  0  0  0  0  0
   13.4369    0.4403   22.7961 C   0  0  0  0  0  0  0  0  0  0  0  0
   13.0450   -0.7256   22.1770 C   0  0  0  0  0  0  0  0  0  0  0  0
   14.2051   -1.6085   21.2240 Cl  0  0  0  0  0  0  0  0  0  0  0  0
   11.7440   -1.1887   22.2539 C   0  0  0  0  0  0  0  0  0  0  0  0
   10.7879   -0.4448   22.9468 C   0  0  0  0  0  0  0  0  0  0  0  0
    9.3189   -0.7968   22.8397 C   0  0  1  0  0  0  0  0  0  0  0  0
    8.6028   -0.3709   24.1207 C   0  0  2  0  0  0  0  0  0  0  0  0
    8.7060   -0.0128   21.6737 C   0  0  0  0  0  0  0  0  0  0  0  0
    9.1940    1.0403   21.2658 O   0  0  0  0  0  0  0  0  0  0  0  0
    7.5811   -0.5598   21.1456 N   0  0  0  0  0  0  0  0  0  0  0  0
    6.8061   -0.0708   20.0696 C   0  0  0  0  0  0  0  0  0  0  0  0
    5.6341    0.7062   20.3485 C   0  0  0  0  0  0  0  0  0  0  0  0
    5.0980    0.8831   21.6505 C   0  0  0  0  0  0  0  0  0  0  0  0
    3.9749    1.6280   21.8525 C   0  0  0  0  0  0  0  0  0  0  0  0
    3.3600    2.2240   20.7754 C   0  0  0  0  0  0  0  0  0  0  0  0
    2.2389    2.9640   21.0054 F   0  0  0  0  0  0  0  0  0  0  0  0
    3.8031    2.1041   19.4975 C   0  0  0  0  0  0  0  0  0  0  0  0
    4.9561    1.3172   19.2535 C   0  0  0  0  0  0  0  0  0  0  0  0
    5.4662    1.0843   17.9525 C   0  0  0  0  0  0  0  0  0  0  0  0
    6.5313    0.3414   17.6906 N   0  0  0  0  0  0  0  0  0  0  0  0
    7.1692   -0.2157   18.7306 C   0  0  0  0  0  0  0  0  0  0  0  0
    7.2679    0.8537   25.6951 H   0  0  0  0  0  0  0  0  0  0  0  0
    8.5946    1.8841   26.3312 H   0  0  0  0  0  0  0  0  0  0  0  0
    8.6465    4.0664   24.1484 H   0  0  0  0  0  0  0  0  0  0  0  0
    8.0883    3.6651   21.9060 H   0  0  0  0  0  0  0  0  0  0  0  0
    6.7869    2.5508   22.4456 H   0  0  0  0  0  0  0  0  0  0  0  0
    5.7810    4.4888   21.4375 H   0  0  0  0  0  0  0  0  0  0  0  0
    5.4808    4.5342   23.2079 H   0  0  0  0  0  0  0  0  0  0  0  0
    6.0921    6.7582   22.3433 H   0  0  0  0  0  0  0  0  0  0  0  0
    7.3360    6.1385   23.4815 H   0  0  0  0  0  0  0  0  0  0  0  0
    7.6362    6.0933   21.7110 H   0  0  0  0  0  0  0  0  0  0  0  0
   12.8116    2.0580   24.0389 H   0  0  0  0  0  0  0  0  0  0  0  0
   14.4538    0.7929   22.7063 H   0  0  0  0  0  0  0  0  0  0  0  0
   11.4698   -2.1200   21.7807 H   0  0  0  0  0  0  0  0  0  0  0  0
    9.1946   -1.8775   22.6763 H   0  0  0  0  0  0  0  0  0  0  0  0
    7.5164   -0.4422   23.9637 H   0  0  0  0  0  0  0  0  0  0  0  0
    8.9002   -1.0448   24.9377 H   0  0  0  0  0  0  0  0  0  0  0  0
    7.2634   -1.4088   21.5678 H   0  0  0  0  0  0  0  0  0  0  0  0
    5.5876    0.4200   22.4944 H   0  0  0  0  0  0  0  0  0  0  0  0
    3.5718    1.7492   22.8470 H   0  0  0  0  0  0  0  0  0  0  0  0
    3.2887    2.5971   18.6858 H   0  0  0  0  0  0  0  0  0  0  0  0
    4.9533    1.5424   17.1198 H   0  0  0  0  0  0  0  0  0  0  0  0
    8.0338   -0.8256   18.5138 H   0  0  0  0  0  0  0  0  0  0  0  0
  1  2  2  0
  2  3  1  0
  2 11  1  0
  3  4  1  0
  3 19  1  0
  4  5  1  0
  4 34  1  1
  4 35  1  0
  5  6  2  0
  5  7  1  0
  7  8  1  0
  7 36  1  0
  8  9  1  0
  8 37  1  6
  8 38  1  0
  9 10  1  0
  9 39  1  6
  9 40  1  0
 10 41  1  6
 10 42  1  0
 10 43  1  0
 11 12  2  0
 11 17  1  0
 12 13  1  0
 12 44  1  0
 13 14  2  0
 13 45  1  0
 14 15  1  0
 14 16  1  0
 16 17  2  0
 16 46  1  0
 17 18  1  0
 18 19  1  0
 18 20  1  0
 18 47  1  6
 19 48  1  6
 19 49  1  0
 20 21  2  0
 20 22  1  0
 22 23  1  0
 22 50  1  0
 23 24  2  0
 23 33  1  0
 24 25  1  0
 24 30  1  0
 25 26  2  0
 25 51  1  0
 26 27  1  0
 26 52  1  0
 27 28  1  0
 27 29  2  0
 29 30  1  0
 29 53  1  0
 30 31  2  0
 31 32  1  0
 31 54  1  0
 32 33  2  0
 33 55  1  0
M  END
$$$$
