LIG(A-306)
     RDKit          3D

 42 46  0  0  1  0  0  0  0  0999 V2000
   -9.4765    0.4808  -21.2493 O   0  0  0  0  0  0  0  0  0  0  0  0
   -8.9496   -0.5502  -21.6186 C   0  0  0  0  0  0  0  0  0  0  0  0
   -9.3194   -1.3600  -22.8609 C   0  0  2  0  0  0  0  0  0  0  0  0
   -8.6244   -0.6975  -24.0756 C   0  0  1  0  0  0  0  0  0  0  0  0
   -9.4574    0.4256  -24.6555 C   0  0  1  0  0  0  0  0  0  0  0  0
  -10.7432   -0.0537  -25.0744 O   0  0  0  0  0  0  0  0  0  0  0  0
  -10.8408   -1.4165  -23.0520 C   0  0  0  0  0  0  0  0  0  0  0  0
  -11.4526   -0.7303  -24.1128 C   0  0  0  0  0  0  0  0  0  0  0  0
  -12.8287   -0.7003  -24.2608 C   0  0  0  0  0  0  0  0  0  0  0  0
  -13.6261   -1.3515  -23.3379 C   0  0  0  0  0  0  0  0  0  0  0  0
  -11.6592   -2.0906  -22.1462 C   0  0  0  0  0  0  0  0  0  0  0  0
  -13.0353   -2.0336  -22.2991 C   0  0  0  0  0  0  0  0  0  0  0  0
  -14.0497   -2.8411  -21.1375 Cl  0  0  0  0  0  0  0  0  0  0  0  0
   -7.8904   -1.2091  -20.9804 N   0  0  0  0  0  0  0  0  0  0  0  0
   -7.6133   -2.4559  -21.5421 C   0  0  0  0  0  0  0  0  0  0  0  0
   -6.6476   -3.1474  -21.2458 O   0  0  0  0  0  0  0  0  0  0  0  0
   -8.6654   -2.7316  -22.5816 C   0  0  1  0  0  0  0  0  0  0  0  0
   -7.1014   -0.6158  -19.9314 C   0  0  0  0  0  0  0  0  0  0  0  0
   -6.0965    0.3349  -20.2735 C   0  0  0  0  0  0  0  0  0  0  0  0
   -5.6238    0.5663  -21.5913 C   0  0  0  0  0  0  0  0  0  0  0  0
   -4.6657    1.5087  -21.8424 C   0  0  0  0  0  0  0  0  0  0  0  0
   -4.1294    2.2648  -20.8085 C   0  0  0  0  0  0  0  0  0  0  0  0
   -4.5421    2.0724  -19.5206 C   0  0  0  0  0  0  0  0  0  0  0  0
   -5.5321    1.1028  -19.2166 C   0  0  0  0  0  0  0  0  0  0  0  0
   -5.9979    0.8534  -17.9008 C   0  0  0  0  0  0  0  0  0  0  0  0
   -6.9337   -0.0363  -17.5936 N   0  0  0  0  0  0  0  0  0  0  0  0
   -7.4679   -0.7455  -18.5963 C   0  0  0  0  0  0  0  0  0  0  0  0
   -7.6542   -0.2915  -23.7531 H   0  0  0  0  0  0  0  0  0  0  0  0
   -8.4631   -1.4591  -24.8527 H   0  0  0  0  0  0  0  0  0  0  0  0
   -9.5950    1.2039  -23.8905 H   0  0  0  0  0  0  0  0  0  0  0  0
   -8.9323    0.8526  -25.5227 H   0  0  0  0  0  0  0  0  0  0  0  0
  -13.2757   -0.1726  -25.0903 H   0  0  0  0  0  0  0  0  0  0  0  0
  -14.7017   -1.3250  -23.4314 H   0  0  0  0  0  0  0  0  0  0  0  0
  -11.2244   -2.6522  -21.3327 H   0  0  0  0  0  0  0  0  0  0  0  0
   -9.4104   -3.4444  -22.1982 H   0  0  0  0  0  0  0  0  0  0  0  0
   -8.2083   -3.1357  -23.4968 H   0  0  0  0  0  0  0  0  0  0  0  0
   -6.0275   -0.0117  -22.4095 H   0  0  0  0  0  0  0  0  0  0  0  0
   -4.3228    1.6667  -22.8542 H   0  0  0  0  0  0  0  0  0  0  0  0
   -3.3795    3.0114  -21.0244 H   0  0  0  0  0  0  0  0  0  0  0  0
   -4.1107    2.6637  -18.7265 H   0  0  0  0  0  0  0  0  0  0  0  0
   -5.5622    1.4254  -17.0949 H   0  0  0  0  0  0  0  0  0  0  0  0
   -8.2343   -1.4660  -18.3517 H   0  0  0  0  0  0  0  0  0  0  0  0
  1  2  2  0
  3  2  1  1
  2 14  1  0
  3  4  1  0
  3  7  1  0
  3 17  1  0
  4  5  1  0
  4 28  1  1
  4 29  1  0
  5  6  1  0
  5 30  1  1
  5 31  1  0
  6  8  1  0
  7  8  2  0
  7 11  1  0
  8  9  1  0
  9 10  2  0
  9 32  1  0
 10 12  1  0
 10 33  1  0
 11 12  2  0
 11 34  1  0
 12 13  1  0
 14 15  1  0
 14 18  1  0
 15 16  2  0
 15 17  1  0
 17 35  1  1
 17 36  1  0
 18 19  2  0
 18 27  1  0
 19 20  1  0
 19 24  1  0
 20 21  2  0
 20 37  1  0
 21 22  1  0
 21 38  1  0
 22 23  2  0
 22 39  1  0
 23 24  1  0
 23 40  1  0
 24 25  2  0
 25 26  1  0
 25 41  1  0
 26 27  2  0
 27 42  1  0
M  END
$$$$
