LIG(A-306)
     RDKit          3D

 36 38  0  0  0  0  0  0  0  0999 V2000
   14.0850   -1.5012   21.6127 Cl  0  0  0  0  0  0  0  0  0  0  0  0
   12.7629   -0.8364   22.5327 C   0  0  0  0  0  0  0  0  0  0  0  0
   13.0208    0.1336   23.4798 C   0  0  0  0  0  0  0  0  0  0  0  0
   11.9677    0.6164   24.2368 C   0  0  0  0  0  0  0  0  0  0  0  0
   10.6778    0.1583   24.0148 C   0  0  0  0  0  0  0  0  0  0  0  0
   11.4829   -1.3076   22.3037 C   0  0  0  0  0  0  0  0  0  0  0  0
   10.4179   -0.7867   23.0308 C   0  0  0  0  0  0  0  0  0  0  0  0
    8.9969   -1.1569   22.6698 C   0  0  1  0  0  0  0  0  0  0  0  0
    8.3948   -0.2119   21.6468 C   0  0  0  0  0  0  0  0  0  0  0  0
    8.9307    0.8571   21.3558 O   0  0  0  0  0  0  0  0  0  0  0  0
    7.2618   -0.6591   21.0658 N   0  0  0  0  0  0  0  0  0  0  0  0
    6.5688   -0.0931   19.9748 C   0  0  0  0  0  0  0  0  0  0  0  0
    6.9488   -0.2530   18.6418 C   0  0  0  0  0  0  0  0  0  0  0  0
    6.3247    0.3009   17.5928 N   0  0  0  0  0  0  0  0  0  0  0  0
    5.2706    1.0698   17.8439 C   0  0  0  0  0  0  0  0  0  0  0  0
    5.4297    0.7257   20.2459 C   0  0  0  0  0  0  0  0  0  0  0  0
    4.7686    1.3347   19.1429 C   0  0  0  0  0  0  0  0  0  0  0  0
    3.6385    2.1475   19.3869 C   0  0  0  0  0  0  0  0  0  0  0  0
    3.1625    2.3224   20.6519 C   0  0  0  0  0  0  0  0  0  0  0  0
    4.9086    0.9406   21.5469 C   0  0  0  0  0  0  0  0  0  0  0  0
    3.7795    1.7035   21.7449 C   0  0  0  0  0  0  0  0  0  0  0  0
    3.1575    1.8103   23.0999 C   0  0  0  0  0  0  0  0  0  0  0  0
    2.1925    2.5482   23.3010 O   0  0  0  0  0  0  0  0  0  0  0  0
    3.6767    1.0424   24.0319 O   0  0  0  0  0  0  0  0  0  0  0  0
   14.0230    0.5079   23.6270 H   0  0  0  0  0  0  0  0  0  0  0  0
   12.1514    1.3537   25.0043 H   0  0  0  0  0  0  0  0  0  0  0  0
    9.8652    0.5411   24.6145 H   0  0  0  0  0  0  0  0  0  0  0  0
   11.3114   -2.0759   21.5643 H   0  0  0  0  0  0  0  0  0  0  0  0
    8.9917   -2.1759   22.2553 H   0  0  0  0  0  0  0  0  0  0  0  0
    8.3821   -1.1287   23.5815 H   0  0  0  0  0  0  0  0  0  0  0  0
    6.8661   -1.4909   21.4550 H   0  0  0  0  0  0  0  0  0  0  0  0
    7.8116   -0.8703   18.4398 H   0  0  0  0  0  0  0  0  0  0  0  0
    4.7636    1.5220   17.0043 H   0  0  0  0  0  0  0  0  0  0  0  0
    3.1455    2.6367   18.5599 H   0  0  0  0  0  0  0  0  0  0  0  0
    2.2967    2.9476   20.8132 H   0  0  0  0  0  0  0  0  0  0  0  0
    5.4060    0.4983   22.3974 H   0  0  0  0  0  0  0  0  0  0  0  0
  1  2  1  0
  2  3  2  0
  2  6  1  0
  3  4  1  0
  3 25  1  0
  4  5  2  0
  4 26  1  0
  5  7  1  0
  5 27  1  0
  6  7  2  0
  6 28  1  0
  7  8  1  0
  8  9  1  0
  8 29  1  6
  8 30  1  0
  9 10  2  0
  9 11  1  0
 11 12  1  0
 11 31  1  0
 12 13  2  0
 12 16  1  0
 13 14  1  0
 13 32  1  0
 14 15  2  0
 15 17  1  0
 15 33  1  0
 16 17  2  0
 16 20  1  0
 17 18  1  0
 18 19  2  0
 18 34  1  0
 19 21  1  0
 19 35  1  0
 20 21  2  0
 20 36  1  0
 21 22  1  0
 22 23  2  0
 22 24  1  0
M  CHG  1  24  -1
M  END
$$$$
