LIG(A-307)
     RDKit          3D

 61 66  0  0  1  0  0  0  0  0999 V2000
    9.1370    7.1959   22.5325 N   0  0  0  0  0  0  0  0  0  0  0  0
    8.4092    6.3208   22.5382 C   0  0  0  0  0  0  0  0  0  0  0  0
    7.5177    5.1549   22.5077 C   0  0  2  0  0  0  0  0  0  0  0  0
    6.2366    5.2791   21.7141 C   0  0  1  0  0  0  0  0  0  0  0  0
    6.1732    5.2550   23.1930 C   0  0  1  0  0  0  0  0  0  0  0  0
    8.2549    3.8279   22.6186 C   0  0  1  0  0  0  0  0  0  0  0  0
    8.7220    3.2808   24.2486 S   0  0  1  0  0  0  0  0  0  0  0  0
    9.4553    4.3284   24.8827 O   0  0  0  0  0  0  0  0  0  0  0  0
    7.5600    2.7538   24.8915 O   0  0  0  0  0  0  0  0  0  0  0  0
    9.7517    2.0391   24.0164 N   0  0  0  0  0  0  0  0  0  0  0  0
   11.1956    2.2137   24.2149 C   0  0  1  0  0  0  0  0  0  0  0  0
    9.3181    0.6407   24.1616 C   0  0  1  0  0  0  0  0  0  0  0  0
    9.8981   -0.1774   22.9790 C   0  0  2  0  0  0  0  0  0  0  0  0
   11.3996    0.0938   22.7925 C   0  0  0  0  0  0  0  0  0  0  0  0
   11.9876    1.2278   23.3802 C   0  0  0  0  0  0  0  0  0  0  0  0
   13.3455    1.4660   23.1796 C   0  0  0  0  0  0  0  0  0  0  0  0
   14.1126    0.6280   22.3911 C   0  0  0  0  0  0  0  0  0  0  0  0
   12.1839   -0.7672   22.0164 C   0  0  0  0  0  0  0  0  0  0  0  0
   13.5200   -0.4711   21.8127 C   0  0  0  0  0  0  0  0  0  0  0  0
   14.4741   -1.5081   20.7787 Cl  0  0  0  0  0  0  0  0  0  0  0  0
    9.1302    0.2950   21.7480 C   0  0  0  0  0  0  0  0  0  0  0  0
    9.5419    1.2374   21.1034 O   0  0  0  0  0  0  0  0  0  0  0  0
    7.9462   -0.3261   21.4395 N   0  0  0  0  0  0  0  0  0  0  0  0
    7.6115   -1.7081   21.8343 C   0  0  1  0  0  0  0  0  0  0  0  0
    8.1908   -2.0568   23.1932 C   0  0  1  0  0  0  0  0  0  0  0  0
    9.6671   -1.6831   23.2509 C   0  0  1  0  0  0  0  0  0  0  0  0
    7.1496    0.1243   20.3300 C   0  0  0  0  0  0  0  0  0  0  0  0
    5.9670    0.8892   20.5634 C   0  0  0  0  0  0  0  0  0  0  0  0
    5.4864    1.2355   21.8549 C   0  0  0  0  0  0  0  0  0  0  0  0
    4.3601    1.9925   22.0083 C   0  0  0  0  0  0  0  0  0  0  0  0
    3.6629    2.4556   20.9014 C   0  0  0  0  0  0  0  0  0  0  0  0
    4.0788    2.1469   19.6374 C   0  0  0  0  0  0  0  0  0  0  0  0
    5.2338    1.3521   19.4316 C   0  0  0  0  0  0  0  0  0  0  0  0
    5.7099    0.9947   18.1434 C   0  0  0  0  0  0  0  0  0  0  0  0
    6.7966    0.2677   17.9284 N   0  0  0  0  0  0  0  0  0  0  0  0
    7.4872   -0.1422   19.0043 C   0  0  0  0  0  0  0  0  0  0  0  0
    6.0162    6.2102   21.1713 H   0  0  0  0  0  0  0  0  0  0  0  0
    5.8648    4.4206   21.1356 H   0  0  0  0  0  0  0  0  0  0  0  0
    5.7547    4.3786   23.7094 H   0  0  0  0  0  0  0  0  0  0  0  0
    5.9060    6.1681   23.7451 H   0  0  0  0  0  0  0  0  0  0  0  0
    7.6060    3.0531   22.1842 H   0  0  0  0  0  0  0  0  0  0  0  0
    9.1757    3.9115   22.0226 H   0  0  0  0  0  0  0  0  0  0  0  0
   11.4764    3.2367   23.9242 H   0  0  0  0  0  0  0  0  0  0  0  0
   11.4332    2.0562   25.2773 H   0  0  0  0  0  0  0  0  0  0  0  0
    9.6904    0.2332   25.1131 H   0  0  0  0  0  0  0  0  0  0  0  0
    8.2195    0.5889   24.1455 H   0  0  0  0  0  0  0  0  0  0  0  0
   13.8080    2.3217   23.6489 H   0  0  0  0  0  0  0  0  0  0  0  0
   15.1609    0.8331   22.2317 H   0  0  0  0  0  0  0  0  0  0  0  0
   11.7501   -1.6550   21.5804 H   0  0  0  0  0  0  0  0  0  0  0  0
    6.5173   -1.8126   21.8752 H   0  0  0  0  0  0  0  0  0  0  0  0
    8.0183   -2.4022   21.0840 H   0  0  0  0  0  0  0  0  0  0  0  0
    7.6459   -1.5040   23.9726 H   0  0  0  0  0  0  0  0  0  0  0  0
    8.0831   -3.1377   23.3671 H   0  0  0  0  0  0  0  0  0  0  0  0
   10.2106   -2.2676   22.4940 H   0  0  0  0  0  0  0  0  0  0  0  0
   10.0556   -1.9265   24.2508 H   0  0  0  0  0  0  0  0  0  0  0  0
    6.0205    0.8944   22.7294 H   0  0  0  0  0  0  0  0  0  0  0  0
    4.0086    2.2332   23.0008 H   0  0  0  0  0  0  0  0  0  0  0  0
    2.7829    3.0661   21.0407 H   0  0  0  0  0  0  0  0  0  0  0  0
    3.5221    2.5120   18.7870 H   0  0  0  0  0  0  0  0  0  0  0  0
    5.1516    1.3367   17.2845 H   0  0  0  0  0  0  0  0  0  0  0  0
    8.3780   -0.7268   18.8280 H   0  0  0  0  0  0  0  0  0  0  0  0
  1  2  3  0
  3  2  1  1
  3  4  1  0
  3  5  1  0
  3  6  1  0
  4  5  1  0
  4 37  1  6
  4 38  1  0
  5 39  1  6
  5 40  1  0
  6  7  1  0
  6 41  1  6
  6 42  1  0
  7  8  2  0
  7  9  2  0
  7 10  1  6
 10 11  1  0
 10 12  1  0
 11 15  1  0
 11 43  1  6
 11 44  1  0
 12 13  1  0
 12 45  1  1
 12 46  1  0
 13 14  1  0
 13 21  1  6
 13 26  1  0
 14 15  2  0
 14 18  1  0
 15 16  1  0
 16 17  2  0
 16 47  1  0
 17 19  1  0
 17 48  1  0
 18 19  2  0
 18 49  1  0
 19 20  1  0
 21 22  2  0
 21 23  1  0
 23 24  1  0
 23 27  1  0
 24 25  1  0
 24 50  1  1
 24 51  1  0
 25 26  1  0
 25 52  1  1
 25 53  1  0
 26 54  1  6
 26 55  1  0
 27 28  2  0
 27 36  1  0
 28 29  1  0
 28 33  1  0
 29 30  2  0
 29 56  1  0
 30 31  1  0
 30 57  1  0
 31 32  2  0
 31 58  1  0
 32 33  1  0
 32 59  1  0
 33 34  2  0
 34 35  1  0
 34 60  1  0
 35 36  2  0
 36 61  1  0
M  END
$$$$
