LIG(A-306)
     RDKit          3D

 48 50  0  0  1  0  0  0  0  0999 V2000
  -13.9698   -2.4185  -21.8128 Cl  0  0  0  0  0  0  0  0  0  0  0  0
  -12.7475   -1.5035  -22.6303 C   0  0  0  0  0  0  0  0  0  0  0  0
  -13.0895   -0.4710  -23.4865 C   0  0  0  0  0  0  0  0  0  0  0  0
  -14.7404   -0.0303  -23.7437 Cl  0  0  0  0  0  0  0  0  0  0  0  0
  -12.1044    0.2597  -24.1120 C   0  0  0  0  0  0  0  0  0  0  0  0
  -10.7774   -0.0372  -23.8815 C   0  0  0  0  0  0  0  0  0  0  0  0
  -11.4193   -1.8011  -22.3858 C   0  0  0  0  0  0  0  0  0  0  0  0
  -10.4175   -1.0617  -23.0128 C   0  0  0  0  0  0  0  0  0  0  0  0
   -8.9317   -1.3624  -22.7578 C   0  0  1  0  0  0  0  0  0  0  0  0
   -8.7861   -2.8267  -22.3262 C   0  0  1  0  0  0  0  0  0  0  0  0
   -8.1814   -1.1846  -24.0116 N   0  0  0  0  0  0  0  0  0  0  0  0
   -7.5684   -0.1145  -24.5463 C   0  0  0  0  0  0  0  0  0  0  0  0
   -7.6331    1.0179  -24.0767 O   0  0  0  0  0  0  0  0  0  0  0  0
   -6.7799   -0.3478  -25.8148 C   0  0  1  0  0  0  0  0  0  0  0  0
   -6.3419   -1.6928  -25.7728 O   0  0  0  0  0  0  0  0  0  0  0  0
   -5.8618   -2.1563  -27.0271 C   0  0  1  0  0  0  0  0  0  0  0  0
   -8.4391   -0.3640  -21.6553 C   0  0  0  0  0  0  0  0  0  0  0  0
   -8.7048    0.8299  -21.7069 O   0  0  0  0  0  0  0  0  0  0  0  0
   -7.7969   -0.9090  -20.6007 N   0  0  0  0  0  0  0  0  0  0  0  0
   -6.8450   -0.3888  -19.6935 C   0  0  0  0  0  0  0  0  0  0  0  0
   -5.9069    0.6229  -20.0953 C   0  0  0  0  0  0  0  0  0  0  0  0
   -5.4865    0.8258  -21.4362 C   0  0  0  0  0  0  0  0  0  0  0  0
   -4.4890    1.7090  -21.7371 C   0  0  0  0  0  0  0  0  0  0  0  0
   -3.8552    2.4269  -20.7379 C   0  0  0  0  0  0  0  0  0  0  0  0
   -4.2244    2.2764  -19.4350 C   0  0  0  0  0  0  0  0  0  0  0  0
   -5.2571    1.3739  -19.0761 C   0  0  0  0  0  0  0  0  0  0  0  0
   -5.6013    1.0982  -17.7348 C   0  0  0  0  0  0  0  0  0  0  0  0
   -6.4447    0.1520  -17.3631 N   0  0  0  0  0  0  0  0  0  0  0  0
   -7.0152   -0.5794  -18.3260 C   0  0  0  0  0  0  0  0  0  0  0  0
  -12.3703    1.0639  -24.7820 H   0  0  0  0  0  0  0  0  0  0  0  0
  -10.0084    0.5329  -24.3816 H   0  0  0  0  0  0  0  0  0  0  0  0
  -11.1590   -2.6035  -21.7114 H   0  0  0  0  0  0  0  0  0  0  0  0
   -7.7253   -3.0513  -22.1413 H   0  0  0  0  0  0  0  0  0  0  0  0
   -9.3626   -2.9963  -21.4049 H   0  0  0  0  0  0  0  0  0  0  0  0
   -9.1663   -3.4831  -23.1228 H   0  0  0  0  0  0  0  0  0  0  0  0
   -8.1156   -2.0126  -24.5684 H   0  0  0  0  0  0  0  0  0  0  0  0
   -7.4187   -0.1833  -26.6951 H   0  0  0  0  0  0  0  0  0  0  0  0
   -5.9163    0.3322  -25.8562 H   0  0  0  0  0  0  0  0  0  0  0  0
   -5.5370   -3.2029  -26.9320 H   0  0  0  0  0  0  0  0  0  0  0  0
   -6.6655   -2.0884  -27.7750 H   0  0  0  0  0  0  0  0  0  0  0  0
   -5.0110   -1.5361  -27.3458 H   0  0  0  0  0  0  0  0  0  0  0  0
   -8.0409   -1.8633  -20.4278 H   0  0  0  0  0  0  0  0  0  0  0  0
   -5.9634    0.2725  -22.2316 H   0  0  0  0  0  0  0  0  0  0  0  0
   -4.1917    1.8487  -22.7660 H   0  0  0  0  0  0  0  0  0  0  0  0
   -3.0609    3.1126  -20.9932 H   0  0  0  0  0  0  0  0  0  0  0  0
   -3.7254    2.8504  -18.6682 H   0  0  0  0  0  0  0  0  0  0  0  0
   -5.1454    1.7001  -16.9626 H   0  0  0  0  0  0  0  0  0  0  0  0
   -7.6627   -1.3863  -18.0161 H   0  0  0  0  0  0  0  0  0  0  0  0
  1  2  1  0
  2  3  2  0
  2  7  1  0
  3  4  1  0
  3  5  1  0
  5  6  2  0
  5 30  1  0
  6  8  1  0
  6 31  1  0
  7  8  2  0
  7 32  1  0
  8  9  1  0
  9 10  1  0
  9 11  1  6
  9 17  1  0
 10 33  1  1
 10 34  1  0
 10 35  1  0
 11 12  1  0
 11 36  1  0
 12 13  2  0
 12 14  1  0
 14 15  1  0
 14 37  1  6
 14 38  1  0
 15 16  1  0
 16 39  1  1
 16 40  1  0
 16 41  1  0
 17 18  2  0
 17 19  1  0
 19 20  1  0
 19 42  1  0
 20 21  2  0
 20 29  1  0
 21 22  1  0
 21 26  1  0
 22 23  2  0
 22 43  1  0
 23 24  1  0
 23 44  1  0
 24 25  2  0
 24 45  1  0
 25 26  1  0
 25 46  1  0
 26 27  2  0
 27 28  1  0
 27 47  1  0
 28 29  2  0
 29 48  1  0
M  END
$$$$
