LIG(A-306)
     RDKit          3D

 43 47  0  0  1  0  0  0  0  0999 V2000
    9.4973    1.4654   21.3009 O   0  0  0  0  0  0  0  0  0  0  0  0
    9.0565    0.4523   21.8089 C   0  0  0  0  0  0  0  0  0  0  0  0
    9.5746   -0.2176   23.0859 C   0  0  2  0  0  0  0  0  0  0  0  0
    8.9155    0.5113   24.2849 C   0  0  1  0  0  0  0  0  0  0  0  0
    9.8704    0.6885   25.4509 C   0  0  1  0  0  0  0  0  0  0  0  0
   11.0933    1.3287   25.0519 O   0  0  0  0  0  0  0  0  0  0  0  0
   11.1096   -0.1563   23.1279 C   0  0  0  0  0  0  0  0  0  0  0  0
   11.7634    0.6578   24.0609 C   0  0  0  0  0  0  0  0  0  0  0  0
   13.1374    0.8420   24.0319 C   0  0  0  0  0  0  0  0  0  0  0  0
   13.8835    0.1981   23.0619 C   0  0  0  0  0  0  0  0  0  0  0  0
   11.8827   -0.8392   22.1919 C   0  0  0  0  0  0  0  0  0  0  0  0
   13.2516   -0.6420   22.1689 C   0  0  0  0  0  0  0  0  0  0  0  0
   14.2028   -1.4768   20.9719 Cl  0  0  0  0  0  0  0  0  0  0  0  0
    7.9806   -0.2568   21.3579 N   0  0  0  0  0  0  0  0  0  0  0  0
    7.7958   -1.5349   22.0679 C   0  0  1  0  0  0  0  0  0  0  0  0
    9.0558   -1.6617   22.9159 C   0  0  2  0  0  0  0  0  0  0  0  0
    7.1215    0.1410   20.2799 C   0  0  0  0  0  0  0  0  0  0  0  0
    5.9424    0.9258   20.4879 C   0  0  0  0  0  0  0  0  0  0  0  0
    5.4673    1.3248   21.7679 C   0  0  0  0  0  0  0  0  0  0  0  0
    4.3392    2.0886   21.8939 C   0  0  0  0  0  0  0  0  0  0  0  0
    3.6361    2.5075   20.7679 C   0  0  0  0  0  0  0  0  0  0  0  0
    4.0552    2.1555   19.5159 C   0  0  0  0  0  0  0  0  0  0  0  0
    5.2143    1.3567   19.3399 C   0  0  0  0  0  0  0  0  0  0  0  0
    5.7054    0.9768   18.0639 C   0  0  0  0  0  0  0  0  0  0  0  0
    6.7955    0.2440   17.8759 N   0  0  0  0  0  0  0  0  0  0  0  0
    7.4666   -0.1559   18.9649 C   0  0  0  0  0  0  0  0  0  0  0  0
    8.5766    1.5035   23.9521 H   0  0  0  0  0  0  0  0  0  0  0  0
    8.0500   -0.0772   24.6235 H   0  0  0  0  0  0  0  0  0  0  0  0
    9.3815    1.3044   26.2201 H   0  0  0  0  0  0  0  0  0  0  0  0
   10.1075   -0.3008   25.8694 H   0  0  0  0  0  0  0  0  0  0  0  0
   13.6189    1.4804   24.7579 H   0  0  0  0  0  0  0  0  0  0  0  0
   14.9510    0.3516   23.0041 H   0  0  0  0  0  0  0  0  0  0  0  0
   11.4177   -1.5163   21.4907 H   0  0  0  0  0  0  0  0  0  0  0  0
    6.8974   -1.5051   22.7020 H   0  0  0  0  0  0  0  0  0  0  0  0
    7.7154   -2.3706   21.3571 H   0  0  0  0  0  0  0  0  0  0  0  0
    8.8194   -2.1046   23.8946 H   0  0  0  0  0  0  0  0  0  0  0  0
    9.8050   -2.2831   22.4035 H   0  0  0  0  0  0  0  0  0  0  0  0
    6.0052    1.0201   22.6535 H   0  0  0  0  0  0  0  0  0  0  0  0
    3.9907    2.3693   22.8768 H   0  0  0  0  0  0  0  0  0  0  0  0
    2.7516    3.1160   20.8849 H   0  0  0  0  0  0  0  0  0  0  0  0
    3.4988    2.4885   18.6522 H   0  0  0  0  0  0  0  0  0  0  0  0
    5.1582    1.3042   17.1922 H   0  0  0  0  0  0  0  0  0  0  0  0
    8.3488   -0.7590   18.8089 H   0  0  0  0  0  0  0  0  0  0  0  0
  1  2  2  0
  3  2  1  6
  2 14  1  0
  3  4  1  0
  3  7  1  0
  3 16  1  0
  4  5  1  0
  4 27  1  6
  4 28  1  0
  5  6  1  0
  5 29  1  1
  5 30  1  0
  6  8  1  0
  7  8  2  0
  7 11  1  0
  8  9  1  0
  9 10  2  0
  9 31  1  0
 10 12  1  0
 10 32  1  0
 11 12  2  0
 11 33  1  0
 12 13  1  0
 14 15  1  0
 14 17  1  0
 15 16  1  0
 15 34  1  1
 15 35  1  0
 16 36  1  1
 16 37  1  0
 17 18  2  0
 17 26  1  0
 18 19  1  0
 18 23  1  0
 19 20  2  0
 19 38  1  0
 20 21  1  0
 20 39  1  0
 21 22  2  0
 21 40  1  0
 22 23  1  0
 22 41  1  0
 23 24  2  0
 24 25  1  0
 24 42  1  0
 25 26  2  0
 26 43  1  0
M  END
$$$$
