LIG(A-306)
     RDKit          3D

 55 59  0  0  1  0  0  0  0  0999 V2000
    9.3210    1.5023   21.4289 O   0  0  0  0  0  0  0  0  0  0  0  0
    8.9600    0.4053   21.8268 C   0  0  0  0  0  0  0  0  0  0  0  0
    7.9391   -0.3348   21.3038 N   0  0  0  0  0  0  0  0  0  0  0  0
    7.0962    0.0542   20.2077 C   0  0  0  0  0  0  0  0  0  0  0  0
    5.9101    0.8241   20.4106 C   0  0  0  0  0  0  0  0  0  0  0  0
    5.4190    1.2041   21.6856 C   0  0  0  0  0  0  0  0  0  0  0  0
    4.3099    1.9890   21.8075 C   0  0  0  0  0  0  0  0  0  0  0  0
    3.6330    2.4420   20.6815 C   0  0  0  0  0  0  0  0  0  0  0  0
    4.0521    2.0910   19.4305 C   0  0  0  0  0  0  0  0  0  0  0  0
    5.1942    1.2701   19.2576 C   0  0  0  0  0  0  0  0  0  0  0  0
    5.6863    0.8881   17.9836 C   0  0  0  0  0  0  0  0  0  0  0  0
    6.7723    0.1512   17.7987 N   0  0  0  0  0  0  0  0  0  0  0  0
    7.4423   -0.2458   18.8917 C   0  0  0  0  0  0  0  0  0  0  0  0
    7.7681   -1.6268   21.9877 C   0  0  1  0  0  0  0  0  0  0  0  0
    9.0911   -1.8177   22.7248 C   0  0  1  0  0  0  0  0  0  0  0  0
    9.5620   -0.3717   23.0099 C   0  0  1  0  0  0  0  0  0  0  0  0
   11.0940   -0.2336   23.0830 C   0  0  0  0  0  0  0  0  0  0  0  0
   11.9121   -1.0035   22.2561 C   0  0  0  0  0  0  0  0  0  0  0  0
   13.2541   -0.6894   22.1541 C   0  0  0  0  0  0  0  0  0  0  0  0
   14.2312   -1.5394   20.9922 Cl  0  0  0  0  0  0  0  0  0  0  0  0
   13.8200    0.3266   22.8932 C   0  0  0  0  0  0  0  0  0  0  0  0
   13.0258    1.0376   23.7711 C   0  0  0  0  0  0  0  0  0  0  0  0
   11.6619    0.7735   23.8800 C   0  0  0  0  0  0  0  0  0  0  0  0
   10.8367    1.5644   24.8680 C   0  0  1  0  0  0  0  0  0  0  0  0
    8.9289    0.1963   24.3068 C   0  0  1  0  0  0  0  0  0  0  0  0
    9.4058    1.5603   24.5309 N   0  0  1  0  0  0  0  0  0  0  0  0
    8.6226    2.4403   25.3928 C   0  0  1  0  0  0  0  0  0  0  0  0
    7.7106    3.3812   24.6257 C   0  0  0  0  0  0  0  0  0  0  0  0
    6.6236    3.7132   25.0897 O   0  0  0  0  0  0  0  0  0  0  0  0
    8.1317    3.7842   23.4298 N   0  0  0  0  0  0  0  0  0  0  0  0
    7.2817    4.5242   22.5147 C   0  0  1  0  0  0  0  0  0  0  0  0
    5.9312    0.8666   22.5744 H   0  0  0  0  0  0  0  0  0  0  0  0
    3.9539    2.2615   22.7901 H   0  0  0  0  0  0  0  0  0  0  0  0
    2.7674    3.0774   20.7971 H   0  0  0  0  0  0  0  0  0  0  0  0
    3.5088    2.4419   18.5655 H   0  0  0  0  0  0  0  0  0  0  0  0
    5.1428    1.2179   17.1106 H   0  0  0  0  0  0  0  0  0  0  0  0
    8.3248   -0.8491   18.7383 H   0  0  0  0  0  0  0  0  0  0  0  0
    6.9262   -1.5890   22.6946 H   0  0  0  0  0  0  0  0  0  0  0  0
    7.6018   -2.4367   21.2622 H   0  0  0  0  0  0  0  0  0  0  0  0
    8.9416   -2.3738   23.6620 H   0  0  0  0  0  0  0  0  0  0  0  0
    9.8184   -2.3503   22.0945 H   0  0  0  0  0  0  0  0  0  0  0  0
   11.5018   -1.8349   21.7022 H   0  0  0  0  0  0  0  0  0  0  0  0
   14.8683    0.5633   22.7875 H   0  0  0  0  0  0  0  0  0  0  0  0
   13.4686    1.8099   24.3826 H   0  0  0  0  0  0  0  0  0  0  0  0
   10.9656    1.1249   25.8681 H   0  0  0  0  0  0  0  0  0  0  0  0
   11.1953    2.6043   24.8755 H   0  0  0  0  0  0  0  0  0  0  0  0
    7.8335    0.2036   24.2063 H   0  0  0  0  0  0  0  0  0  0  0  0
    9.2144   -0.4359   25.1606 H   0  0  0  0  0  0  0  0  0  0  0  0
    9.3623    1.9907   23.6293 H   0  0  0  0  0  0  0  0  0  0  0  0
    8.0034    1.8180   26.0558 H   0  0  0  0  0  0  0  0  0  0  0  0
    9.3161    3.0430   25.9978 H   0  0  0  0  0  0  0  0  0  0  0  0
    9.0678    3.5696   23.1510 H   0  0  0  0  0  0  0  0  0  0  0  0
    7.8406    4.7480   21.5941 H   0  0  0  0  0  0  0  0  0  0  0  0
    6.3958    3.9206   22.2682 H   0  0  0  0  0  0  0  0  0  0  0  0
    6.9643    5.4648   22.9886 H   0  0  0  0  0  0  0  0  0  0  0  0
  1  2  2  0
  2  3  1  0
 16  2  1  6
  3  4  1  0
  3 14  1  0
  4  5  2  0
  4 13  1  0
  5  6  1  0
  5 10  1  0
  6  7  2  0
  6 32  1  0
  7  8  1  0
  7 33  1  0
  8  9  2  0
  8 34  1  0
  9 10  1  0
  9 35  1  0
 10 11  2  0
 11 12  1  0
 11 36  1  0
 12 13  2  0
 13 37  1  0
 14 15  1  0
 14 38  1  1
 14 39  1  0
 15 16  1  0
 15 40  1  1
 15 41  1  0
 16 17  1  0
 16 25  1  0
 17 18  2  0
 17 23  1  0
 18 19  1  0
 18 42  1  0
 19 20  1  0
 19 21  2  0
 21 22  1  0
 21 43  1  0
 22 23  2  0
 22 44  1  0
 23 24  1  0
 24 26  1  0
 24 45  1  1
 24 46  1  0
 25 26  1  0
 25 47  1  6
 25 48  1  0
 26 27  1  0
 26 49  1  6
 27 28  1  0
 27 50  1  1
 27 51  1  0
 28 29  2  0
 28 30  1  0
 30 31  1  0
 30 52  1  0
 31 53  1  6
 31 54  1  0
 31 55  1  0
M  CHG  1  26   1
M  END
$$$$
