LIG(A-306)
     RDKit          3D

 63 67  0  0  1  0  0  0  0  0999 V2000
    8.9111    1.0104   21.0929 O   0  0  0  0  0  0  0  0  0  0  0  0
    8.4146   -0.0752   21.4052 C   0  0  0  0  0  0  0  0  0  0  0  0
    7.2738   -0.5696   20.8664 N   0  0  0  0  0  0  0  0  0  0  0  0
    6.4907    0.0005   19.8465 C   0  0  0  0  0  0  0  0  0  0  0  0
    5.3806    0.8316   20.2041 C   0  0  0  0  0  0  0  0  0  0  0  0
    4.9190    1.0061   21.5352 C   0  0  0  0  0  0  0  0  0  0  0  0
    3.8849    1.8561   21.8158 C   0  0  0  0  0  0  0  0  0  0  0  0
    3.2574    2.5665   20.7992 C   0  0  0  0  0  0  0  0  0  0  0  0
    3.6540    2.4211   19.4999 C   0  0  0  0  0  0  0  0  0  0  0  0
    4.7201    1.5479   19.1665 C   0  0  0  0  0  0  0  0  0  0  0  0
    5.1798    1.3595   17.8415 C   0  0  0  0  0  0  0  0  0  0  0  0
    6.1927    0.5742   17.5075 N   0  0  0  0  0  0  0  0  0  0  0  0
    6.8231   -0.0794   18.4919 C   0  0  0  0  0  0  0  0  0  0  0  0
    9.0716   -1.0045   22.4549 C   0  0  1  0  0  0  0  0  0  0  0  0
   10.4916   -0.5903   22.8242 C   0  0  0  0  0  0  0  0  0  0  0  0
   10.7427    0.5352   23.5997 C   0  0  0  0  0  0  0  0  0  0  0  0
   12.0428    0.9187   23.8920 C   0  0  0  0  0  0  0  0  0  0  0  0
   13.1136    0.1789   23.4139 C   0  0  0  0  0  0  0  0  0  0  0  0
   11.5654   -1.3401   22.3551 C   0  0  0  0  0  0  0  0  0  0  0  0
   12.8554   -0.9376   22.6423 C   0  0  0  0  0  0  0  0  0  0  0  0
   14.1847   -1.8288   21.9650 Cl  0  0  0  0  0  0  0  0  0  0  0  0
    8.2532   -1.3417   23.6105 N   0  0  0  0  0  0  0  0  0  0  0  0
    7.4820   -0.4584   24.2580 C   0  0  0  0  0  0  0  0  0  0  0  0
    7.5171    0.7568   24.0610 O   0  0  0  0  0  0  0  0  0  0  0  0
    6.5522   -1.0303   25.3186 C   0  0  1  0  0  0  0  0  0  0  0  0
    6.5526   -2.4735   25.2908 O   0  0  0  0  0  0  0  0  0  0  0  0
    7.2767   -3.0312   26.4157 C   0  0  2  0  0  0  0  0  0  0  0  0
    7.9367   -1.8273   27.0819 C   0  0  1  0  0  0  0  0  0  0  0  0
    6.9911   -0.6723   26.7230 C   0  0  1  0  0  0  0  0  0  0  0  0
    8.2913   -4.0831   25.9451 C   0  0  0  0  0  0  0  0  0  0  0  0
    8.7165   -4.0658   24.8010 O   0  0  0  0  0  0  0  0  0  0  0  0
    8.7053   -5.0048   26.8347 N   0  0  0  0  0  0  0  0  0  0  0  0
    8.0908   -5.3048   28.1301 C   0  0  1  0  0  0  0  0  0  0  0  0
    9.2538   -5.7870   28.9527 C   0  0  1  0  0  0  0  0  0  0  0  0
   10.1138   -6.5270   27.9425 C   0  0  1  0  0  0  0  0  0  0  0  0
    9.8784   -5.8522   26.5971 C   0  0  1  0  0  0  0  0  0  0  0  0
    6.9513   -1.4407   21.2368 H   0  0  0  0  0  0  0  0  0  0  0  0
    5.3913    0.4596   22.3381 H   0  0  0  0  0  0  0  0  0  0  0  0
    3.5529    1.9763   22.8365 H   0  0  0  0  0  0  0  0  0  0  0  0
    2.4482    3.2404   21.0388 H   0  0  0  0  0  0  0  0  0  0  0  0
    3.1516    2.9753   18.7210 H   0  0  0  0  0  0  0  0  0  0  0  0
    4.6713    1.8908   17.0506 H   0  0  0  0  0  0  0  0  0  0  0  0
    7.6511   -0.7164   18.2178 H   0  0  0  0  0  0  0  0  0  0  0  0
    9.2024   -1.9558   21.9183 H   0  0  0  0  0  0  0  0  0  0  0  0
    9.9161    1.1176   23.9789 H   0  0  0  0  0  0  0  0  0  0  0  0
   12.2220    1.7970   24.4944 H   0  0  0  0  0  0  0  0  0  0  0  0
   14.1289    0.4695   23.6400 H   0  0  0  0  0  0  0  0  0  0  0  0
   11.3917   -2.2311   21.7700 H   0  0  0  0  0  0  0  0  0  0  0  0
    8.2675   -2.2860   23.9394 H   0  0  0  0  0  0  0  0  0  0  0  0
    5.5348   -0.6480   25.1492 H   0  0  0  0  0  0  0  0  0  0  0  0
    6.5774   -3.4984   27.1247 H   0  0  0  0  0  0  0  0  0  0  0  0
    7.9989   -1.9633   28.1717 H   0  0  0  0  0  0  0  0  0  0  0  0
    8.9443   -1.6539   26.6760 H   0  0  0  0  0  0  0  0  0  0  0  0
    7.5184    0.2929   26.7405 H   0  0  0  0  0  0  0  0  0  0  0  0
    6.1326   -0.6337   27.4097 H   0  0  0  0  0  0  0  0  0  0  0  0
    7.6404   -4.4039   28.5722 H   0  0  0  0  0  0  0  0  0  0  0  0
    7.3243   -6.0876   28.0322 H   0  0  0  0  0  0  0  0  0  0  0  0
    9.8025   -4.9414   29.3929 H   0  0  0  0  0  0  0  0  0  0  0  0
    8.9172   -6.4621   29.7532 H   0  0  0  0  0  0  0  0  0  0  0  0
   11.1751   -6.4561   28.2227 H   0  0  0  0  0  0  0  0  0  0  0  0
    9.8173   -7.5851   27.8939 H   0  0  0  0  0  0  0  0  0  0  0  0
    9.6720   -6.5976   25.8150 H   0  0  0  0  0  0  0  0  0  0  0  0
   10.7481   -5.2453   26.3050 H   0  0  0  0  0  0  0  0  0  0  0  0
  1  2  2  0
  2  3  1  0
  2 14  1  0
  3  4  1  0
  3 37  1  0
  4  5  2  0
  4 13  1  0
  5  6  1  0
  5 10  1  0
  6  7  2  0
  6 38  1  0
  7  8  1  0
  7 39  1  0
  8  9  2  0
  8 40  1  0
  9 10  1  0
  9 41  1  0
 10 11  2  0
 11 12  1  0
 11 42  1  0
 12 13  2  0
 13 43  1  0
 14 15  1  0
 14 22  1  0
 14 44  1  6
 15 16  2  0
 15 19  1  0
 16 17  1  0
 16 45  1  0
 17 18  2  0
 17 46  1  0
 18 20  1  0
 18 47  1  0
 19 20  2  0
 19 48  1  0
 20 21  1  0
 22 23  1  0
 22 49  1  0
 23 24  2  0
 23 25  1  0
 25 26  1  0
 25 29  1  0
 25 50  1  6
 26 27  1  0
 27 28  1  0
 27 30  1  0
 27 51  1  1
 28 29  1  0
 28 52  1  1
 28 53  1  0
 29 54  1  6
 29 55  1  0
 30 31  2  0
 30 32  1  0
 32 33  1  0
 32 36  1  0
 33 34  1  0
 33 56  1  1
 33 57  1  0
 34 35  1  0
 34 58  1  1
 34 59  1  0
 35 36  1  0
 35 60  1  1
 35 61  1  0
 36 62  1  6
 36 63  1  0
M  END
$$$$
