LIG(A-306)
     RDKit          3D

 55 59  0  0  1  0  0  0  0  0999 V2000
    9.5298    1.4169   21.3872 O   0  0  0  0  0  0  0  0  0  0  0  0
    9.0858    0.3819   21.8482 C   0  0  0  0  0  0  0  0  0  0  0  0
    8.0129   -0.3051   21.3672 N   0  0  0  0  0  0  0  0  0  0  0  0
    7.1688    0.1229   20.2892 C   0  0  0  0  0  0  0  0  0  0  0  0
    5.9918    0.9028   20.4862 C   0  0  0  0  0  0  0  0  0  0  0  0
    5.4798    1.2617   21.7612 C   0  0  0  0  0  0  0  0  0  0  0  0
    4.3417    2.0097   21.8763 C   0  0  0  0  0  0  0  0  0  0  0  0
    3.6697    2.4577   20.7433 C   0  0  0  0  0  0  0  0  0  0  0  0
    4.1177    2.1368   19.4953 C   0  0  0  0  0  0  0  0  0  0  0  0
    5.2818    1.3438   19.3302 C   0  0  0  0  0  0  0  0  0  0  0  0
    5.7818    0.9609   18.0592 C   0  0  0  0  0  0  0  0  0  0  0  0
    6.8718    0.2260   17.8812 N   0  0  0  0  0  0  0  0  0  0  0  0
    7.5329   -0.1710   18.9772 C   0  0  0  0  0  0  0  0  0  0  0  0
    7.8229   -1.6012   22.0391 C   0  0  1  0  0  0  0  0  0  0  0  0
    9.1519   -1.8251   22.7591 C   0  0  1  0  0  0  0  0  0  0  0  0
    9.6469   -0.3881   23.0502 C   0  0  1  0  0  0  0  0  0  0  0  0
   11.1809   -0.2500   23.0992 C   0  0  0  0  0  0  0  0  0  0  0  0
   11.9949   -1.0240   22.2691 C   0  0  0  0  0  0  0  0  0  0  0  0
   13.3429   -0.7279   22.1782 C   0  0  0  0  0  0  0  0  0  0  0  0
   14.3159   -1.5698   21.0031 Cl  0  0  0  0  0  0  0  0  0  0  0  0
   13.9178    0.2691   22.9332 C   0  0  0  0  0  0  0  0  0  0  0  0
   13.1248    0.9930   23.8032 C   0  0  0  0  0  0  0  0  0  0  0  0
   11.7568    0.7499   23.8992 C   0  0  0  0  0  0  0  0  0  0  0  0
   10.9318    1.5649   24.8693 C   0  0  1  0  0  0  0  0  0  0  0  0
    9.0008    0.2418   24.3132 C   0  0  1  0  0  0  0  0  0  0  0  0
    9.5078    1.6008   24.5013 N   0  0  1  0  0  0  0  0  0  0  0  0
    8.7427    2.4707   25.3893 C   0  0  1  0  0  0  0  0  0  0  0  0
    7.7957    3.4267   24.6843 C   0  0  0  0  0  0  0  0  0  0  0  0
    6.7987    3.8526   25.2644 O   0  0  0  0  0  0  0  0  0  0  0  0
    8.0847    3.7568   23.4294 N   0  0  0  0  0  0  0  0  0  0  0  0
    7.1796    4.5348   22.6034 C   0  0  1  0  0  0  0  0  0  0  0  0
    5.9971    0.9390   22.6527 H   0  0  0  0  0  0  0  0  0  0  0  0
    3.9602    2.2554   22.8563 H   0  0  0  0  0  0  0  0  0  0  0  0
    2.7841    3.0659   20.8530 H   0  0  0  0  0  0  0  0  0  0  0  0
    3.5818    2.4893   18.6264 H   0  0  0  0  0  0  0  0  0  0  0  0
    5.2421    1.2877   17.1827 H   0  0  0  0  0  0  0  0  0  0  0  0
    8.4209   -0.7681   18.8312 H   0  0  0  0  0  0  0  0  0  0  0  0
    6.9899   -1.5544   22.7560 H   0  0  0  0  0  0  0  0  0  0  0  0
    7.6324   -2.3998   21.3071 H   0  0  0  0  0  0  0  0  0  0  0  0
    9.0042   -2.3875   23.6929 H   0  0  0  0  0  0  0  0  0  0  0  0
    9.8629   -2.3638   22.1153 H   0  0  0  0  0  0  0  0  0  0  0  0
   11.5765   -1.8443   21.7048 H   0  0  0  0  0  0  0  0  0  0  0  0
   14.9730    0.4824   22.8470 H   0  0  0  0  0  0  0  0  0  0  0  0
   13.5730    1.7593   24.4184 H   0  0  0  0  0  0  0  0  0  0  0  0
   11.0265    1.1227   25.8720 H   0  0  0  0  0  0  0  0  0  0  0  0
   11.3189    2.5944   24.8844 H   0  0  0  0  0  0  0  0  0  0  0  0
    7.9084    0.2731   24.1880 H   0  0  0  0  0  0  0  0  0  0  0  0
    9.2516   -0.3670   25.1944 H   0  0  0  0  0  0  0  0  0  0  0  0
    9.4719    2.0319   23.5997 H   0  0  0  0  0  0  0  0  0  0  0  0
    8.1489    1.8352   26.0627 H   0  0  0  0  0  0  0  0  0  0  0  0
    9.4537    3.0669   25.9801 H   0  0  0  0  0  0  0  0  0  0  0  0
    8.9564    3.4584   23.0407 H   0  0  0  0  0  0  0  0  0  0  0  0
    7.6265    4.6845   21.6095 H   0  0  0  0  0  0  0  0  0  0  0  0
    6.2253    3.9976   22.4991 H   0  0  0  0  0  0  0  0  0  0  0  0
    7.0007    5.5119   23.0758 H   0  0  0  0  0  0  0  0  0  0  0  0
  1  2  2  0
  2  3  1  0
 16  2  1  6
  3  4  1  0
  3 14  1  0
  4  5  2  0
  4 13  1  0
  5  6  1  0
  5 10  1  0
  6  7  2  0
  6 32  1  0
  7  8  1  0
  7 33  1  0
  8  9  2  0
  8 34  1  0
  9 10  1  0
  9 35  1  0
 10 11  2  0
 11 12  1  0
 11 36  1  0
 12 13  2  0
 13 37  1  0
 14 15  1  0
 14 38  1  1
 14 39  1  0
 15 16  1  0
 15 40  1  1
 15 41  1  0
 16 17  1  0
 16 25  1  0
 17 18  2  0
 17 23  1  0
 18 19  1  0
 18 42  1  0
 19 20  1  0
 19 21  2  0
 21 22  1  0
 21 43  1  0
 22 23  2  0
 22 44  1  0
 23 24  1  0
 24 26  1  0
 24 45  1  1
 24 46  1  0
 25 26  1  0
 25 47  1  6
 25 48  1  0
 26 27  1  0
 26 49  1  6
 27 28  1  0
 27 50  1  1
 27 51  1  0
 28 29  2  0
 28 30  1  0
 30 31  1  0
 30 52  1  0
 31 53  1  6
 31 54  1  0
 31 55  1  0
M  CHG  1  26   1
M  END
$$$$
