LIG(A-305)
     RDKit          3D

 29 31  0  0  1  0  0  0  0  0999 V2000
    6.3412    0.3660   20.0994 C   0  0  0  0  0  0  0  0  0  0  0  0
    5.6020    1.2268   17.6104 C   0  0  0  0  0  0  0  0  0  0  0  0
    8.9813   -0.6429   22.2903 N   0  0  0  0  0  0  0  0  0  0  0  0
    6.6620    0.4138   17.7114 N   0  0  0  0  0  0  0  0  0  0  0  0
    4.8581    1.6399   18.7005 C   0  0  0  0  0  0  0  0  0  0  0  0
   13.0344   -0.4969   23.4439 C   0  0  0  0  0  0  0  0  0  0  0  0
    8.9473    1.3990   21.2032 O   0  0  0  0  0  0  0  0  0  0  0  0
   12.6363   -1.2290   22.3410 C   0  0  0  0  0  0  0  0  0  0  0  0
    8.3683    0.4160   21.6233 C   0  0  0  0  0  0  0  0  0  0  0  0
   12.0695    0.1552   24.1980 C   0  0  0  0  0  0  0  0  0  0  0  0
    8.1153   -1.7369   22.4134 C   0  0  0  0  0  0  0  0  0  0  0  0
    6.9333   -1.3599   21.8795 N   0  0  0  0  0  0  0  0  0  0  0  0
    8.3834   -2.8179   22.9154 O   0  0  0  0  0  0  0  0  0  0  0  0
   11.3133   -1.3110   21.9571 C   0  0  0  0  0  0  0  0  0  0  0  0
    6.9073    0.0390   21.4744 C   0  0  0  0  0  0  0  0  0  0  0  0
   10.3564   -0.6369   22.7122 C   0  0  0  0  0  0  0  0  0  0  0  0
    7.0001   -0.0071   18.9364 C   0  0  0  0  0  0  0  0  0  0  0  0
    5.2372    1.1960   19.9565 C   0  0  0  0  0  0  0  0  0  0  0  0
   10.7315    0.0852   23.8421 C   0  0  0  0  0  0  0  0  0  0  0  0
   13.8303   -2.1060   21.4270 Cl  0  0  0  0  0  0  0  0  0  0  0  0
    5.3144    1.5766   16.6299 H   0  0  0  0  0  0  0  0  0  0  0  0
    4.0051    2.2906   18.5759 H   0  0  0  0  0  0  0  0  0  0  0  0
   14.0782   -0.4336   23.7139 H   0  0  0  0  0  0  0  0  0  0  0  0
   12.3631    0.7219   25.0692 H   0  0  0  0  0  0  0  0  0  0  0  0
    6.1549   -1.9786   21.7730 H   0  0  0  0  0  0  0  0  0  0  0  0
   11.0258   -1.8859   21.0892 H   0  0  0  0  0  0  0  0  0  0  0  0
    7.8398   -0.6805   19.0253 H   0  0  0  0  0  0  0  0  0  0  0  0
    4.6727    1.4961   20.8269 H   0  0  0  0  0  0  0  0  0  0  0  0
    9.9841    0.5879   24.4380 H   0  0  0  0  0  0  0  0  0  0  0  0
  1 15  1  0
  1 17  2  0
  1 18  1  0
  2  4  2  0
  2  5  1  0
  2 21  1  0
  3  9  1  0
  3 11  1  0
  3 16  1  0
  4 17  1  0
  5 18  2  0
  5 22  1  0
  6  8  2  0
  6 10  1  0
  6 23  1  0
  7  9  1  0
  8 14  1  0
  8 20  1  0
  9 15  2  0
 10 19  2  0
 10 24  1  0
 11 12  1  0
 11 13  2  0
 12 15  1  0
 12 25  1  0
 14 16  2  0
 14 26  1  0
 16 19  1  0
 17 27  1  0
 18 28  1  0
 19 29  1  0
M  CHG  1   7  -1
M  END
$$$$
