LIG(A-306)
     RDKit          3D

 43 46  0  0  1  0  0  0  0  0999 V2000
  -14.6062   -2.3360  -21.2020 Cl  0  0  0  0  0  0  0  0  0  0  0  0
  -13.4323   -1.5146  -22.1901 C   0  0  0  0  0  0  0  0  0  0  0  0
  -12.0933   -1.7771  -21.9922 C   0  0  0  0  0  0  0  0  0  0  0  0
  -13.8607   -0.5892  -23.1151 C   0  0  0  0  0  0  0  0  0  0  0  0
  -12.9239    0.1057  -23.8595 C   0  0  0  0  0  0  0  0  0  0  0  0
  -11.5640   -0.1391  -23.6784 C   0  0  0  0  0  0  0  0  0  0  0  0
  -10.6005    0.5023  -24.4583 N   0  0  0  0  0  0  0  0  0  0  0  0
  -10.9383    1.7269  -25.1739 C   0  0  1  0  0  0  0  0  0  0  0  0
  -11.1384   -1.0793  -22.7300 C   0  0  0  0  0  0  0  0  0  0  0  0
   -9.6591   -1.3311  -22.5074 C   0  0  1  0  0  0  0  0  0  0  0  0
   -8.9469   -1.2691  -23.8782 C   0  0  1  0  0  0  0  0  0  0  0  0
   -9.2182    0.0534  -24.6040 C   0  0  2  0  0  0  0  0  0  0  0  0
   -9.0466   -0.3821  -21.4724 C   0  0  0  0  0  0  0  0  0  0  0  0
   -9.3459    0.8087  -21.4219 O   0  0  0  0  0  0  0  0  0  0  0  0
   -8.2514   -0.9839  -20.5567 N   0  0  0  0  0  0  0  0  0  0  0  0
   -7.2120   -0.4711  -19.7413 C   0  0  0  0  0  0  0  0  0  0  0  0
   -6.3434    0.5906  -20.1768 C   0  0  0  0  0  0  0  0  0  0  0  0
   -6.0937    0.9012  -21.5408 C   0  0  0  0  0  0  0  0  0  0  0  0
   -5.1626    1.8390  -21.8933 C   0  0  0  0  0  0  0  0  0  0  0  0
   -4.4373    2.5166  -20.9219 C   0  0  0  0  0  0  0  0  0  0  0  0
   -4.6391    2.2576  -19.5969 C   0  0  0  0  0  0  0  0  0  0  0  0
   -5.5854    1.2840  -19.1873 C   0  0  0  0  0  0  0  0  0  0  0  0
   -5.7479    0.8960  -17.8389 C   0  0  0  0  0  0  0  0  0  0  0  0
   -6.5295   -0.0903  -17.4377 N   0  0  0  0  0  0  0  0  0  0  0  0
   -7.2125   -0.7564  -18.3763 C   0  0  0  0  0  0  0  0  0  0  0  0
  -11.7861   -2.5189  -21.2698 H   0  0  0  0  0  0  0  0  0  0  0  0
  -14.9157   -0.4077  -23.2581 H   0  0  0  0  0  0  0  0  0  0  0  0
  -13.2474    0.8397  -24.5826 H   0  0  0  0  0  0  0  0  0  0  0  0
  -10.0579    2.0823  -25.7292 H   0  0  0  0  0  0  0  0  0  0  0  0
  -11.7590    1.5254  -25.8780 H   0  0  0  0  0  0  0  0  0  0  0  0
  -11.2532    2.4969  -24.4543 H   0  0  0  0  0  0  0  0  0  0  0  0
   -9.5474   -2.3563  -22.1248 H   0  0  0  0  0  0  0  0  0  0  0  0
   -7.8631   -1.3726  -23.7208 H   0  0  0  0  0  0  0  0  0  0  0  0
   -9.3074   -2.0987  -24.5040 H   0  0  0  0  0  0  0  0  0  0  0  0
   -8.5520    0.8250  -24.1906 H   0  0  0  0  0  0  0  0  0  0  0  0
   -9.0029   -0.0818  -25.6743 H   0  0  0  0  0  0  0  0  0  0  0  0
   -8.4284   -1.9604  -20.4343 H   0  0  0  0  0  0  0  0  0  0  0  0
   -6.6486    0.3880  -22.3121 H   0  0  0  0  0  0  0  0  0  0  0  0
   -4.9897    2.0547  -22.9374 H   0  0  0  0  0  0  0  0  0  0  0  0
   -3.7069    3.2552  -21.2174 H   0  0  0  0  0  0  0  0  0  0  0  0
   -4.0729    2.7991  -18.8536 H   0  0  0  0  0  0  0  0  0  0  0  0
   -5.1971    1.4414  -17.0868 H   0  0  0  0  0  0  0  0  0  0  0  0
   -7.8175   -1.5884  -18.0476 H   0  0  0  0  0  0  0  0  0  0  0  0
  1  2  1  0
  2  3  2  0
  2  4  1  0
  3  9  1  0
  3 26  1  0
  4  5  2  0
  4 27  1  0
  5  6  1  0
  5 28  1  0
  6  7  1  0
  6  9  2  0
  7  8  1  0
  7 12  1  0
  8 29  1  6
  8 30  1  0
  8 31  1  0
  9 10  1  0
 10 11  1  0
 10 13  1  0
 10 32  1  1
 11 12  1  0
 11 33  1  1
 11 34  1  0
 12 35  1  1
 12 36  1  0
 13 14  2  0
 13 15  1  0
 15 16  1  0
 15 37  1  0
 16 17  2  0
 16 25  1  0
 17 18  1  0
 17 22  1  0
 18 19  2  0
 18 38  1  0
 19 20  1  0
 19 39  1  0
 20 21  2  0
 20 40  1  0
 21 22  1  0
 21 41  1  0
 22 23  2  0
 23 24  1  0
 23 42  1  0
 24 25  2  0
 25 43  1  0
M  END
$$$$
