LIG(A-306)
     RDKit          3D

 43 46  0  0  1  0  0  0  0  0999 V2000
  -14.6130   -2.3079  -20.9518 Cl  0  0  0  0  0  0  0  0  0  0  0  0
  -13.6076   -1.4130  -22.0619 C   0  0  0  0  0  0  0  0  0  0  0  0
  -14.1791   -0.4303  -22.8418 C   0  0  0  0  0  0  0  0  0  0  0  0
  -13.3651    0.3891  -23.6023 C   0  0  0  0  0  0  0  0  0  0  0  0
  -12.2433   -1.6263  -22.0485 C   0  0  0  0  0  0  0  0  0  0  0  0
  -11.4081   -0.8059  -22.8056 C   0  0  0  0  0  0  0  0  0  0  0  0
  -11.9923    0.1953  -23.5817 C   0  0  0  0  0  0  0  0  0  0  0  0
  -11.2525    0.9918  -24.4156 O   0  0  0  0  0  0  0  0  0  0  0  0
  -10.1545    0.2831  -25.0157 C   0  0  1  0  0  0  0  0  0  0  0  0
   -9.1776   -0.2665  -23.9957 C   0  0  1  0  0  0  0  0  0  0  0  0
   -9.9001   -0.9658  -22.8067 C   0  0  1  0  0  0  0  0  0  0  0  0
   -9.4050   -0.3557  -21.4941 C   0  0  0  0  0  0  0  0  0  0  0  0
   -9.9717    0.5918  -20.9642 O   0  0  0  0  0  0  0  0  0  0  0  0
   -8.2643   -0.9028  -21.0080 N   0  0  0  0  0  0  0  0  0  0  0  0
   -7.4275   -0.4067  -19.9839 C   0  0  0  0  0  0  0  0  0  0  0  0
   -7.7138   -0.4842  -18.6188 C   0  0  0  0  0  0  0  0  0  0  0  0
   -7.0203    0.1279  -17.6480 N   0  0  0  0  0  0  0  0  0  0  0  0
   -5.9804    0.8658  -18.0102 C   0  0  0  0  0  0  0  0  0  0  0  0
   -6.2801    0.3558  -20.3707 C   0  0  0  0  0  0  0  0  0  0  0  0
   -5.5506    1.0308  -19.3495 C   0  0  0  0  0  0  0  0  0  0  0  0
   -4.4507    1.8430  -19.7174 C   0  0  0  0  0  0  0  0  0  0  0  0
   -4.0825    1.9704  -21.0230 C   0  0  0  0  0  0  0  0  0  0  0  0
   -5.8544    0.4925  -21.7162 C   0  0  0  0  0  0  0  0  0  0  0  0
   -4.7781    1.2863  -22.0258 C   0  0  0  0  0  0  0  0  0  0  0  0
   -4.3942    1.3839  -23.3451 O   0  0  0  0  0  0  0  0  0  0  0  0
   -3.2771    2.2136  -23.6849 C   0  0  1  0  0  0  0  0  0  0  0  0
  -15.2513   -0.3018  -22.8587 H   0  0  0  0  0  0  0  0  0  0  0  0
  -13.7951    1.1735  -24.2073 H   0  0  0  0  0  0  0  0  0  0  0  0
  -11.8251   -2.4252  -21.4541 H   0  0  0  0  0  0  0  0  0  0  0  0
  -10.5572   -0.5554  -25.6029 H   0  0  0  0  0  0  0  0  0  0  0  0
   -9.6149    0.9718  -25.6824 H   0  0  0  0  0  0  0  0  0  0  0  0
   -8.5219   -0.9976  -24.4912 H   0  0  0  0  0  0  0  0  0  0  0  0
   -8.5712    0.5630  -23.6032 H   0  0  0  0  0  0  0  0  0  0  0  0
   -9.6493   -2.0367  -22.8220 H   0  0  0  0  0  0  0  0  0  0  0  0
   -7.9795   -1.7652  -21.4266 H   0  0  0  0  0  0  0  0  0  0  0  0
   -8.5609   -1.0847  -18.3218 H   0  0  0  0  0  0  0  0  0  0  0  0
   -5.4257    1.3732  -17.2348 H   0  0  0  0  0  0  0  0  0  0  0  0
   -3.8965    2.3681  -18.9535 H   0  0  0  0  0  0  0  0  0  0  0  0
   -3.2481    2.6037  -21.2856 H   0  0  0  0  0  0  0  0  0  0  0  0
   -6.3796   -0.0307  -22.5015 H   0  0  0  0  0  0  0  0  0  0  0  0
   -3.1094    2.1766  -24.7714 H   0  0  0  0  0  0  0  0  0  0  0  0
   -3.4847    3.2502  -23.3811 H   0  0  0  0  0  0  0  0  0  0  0  0
   -2.3792    1.8512  -23.1629 H   0  0  0  0  0  0  0  0  0  0  0  0
  1  2  1  0
  2  3  2  0
  2  5  1  0
  3  4  1  0
  3 27  1  0
  4  7  2  0
  4 28  1  0
  5  6  2  0
  5 29  1  0
  6  7  1  0
  6 11  1  0
  7  8  1  0
  8  9  1  0
  9 10  1  0
  9 30  1  6
  9 31  1  0
 10 11  1  0
 10 32  1  6
 10 33  1  0
 11 12  1  0
 11 34  1  1
 12 13  2  0
 12 14  1  0
 14 15  1  0
 14 35  1  0
 15 16  2  0
 15 19  1  0
 16 17  1  0
 16 36  1  0
 17 18  2  0
 18 20  1  0
 18 37  1  0
 19 20  2  0
 19 23  1  0
 20 21  1  0
 21 22  2  0
 21 38  1  0
 22 24  1  0
 22 39  1  0
 23 24  2  0
 23 40  1  0
 24 25  1  0
 25 26  1  0
 26 41  1  6
 26 42  1  0
 26 43  1  0
M  END
$$$$
