LIG(A-305)
     RDKit          3D

 37 39  0  0  0  0  0  0  0  0999 V2000
   13.9573   -1.7514   21.3209 Cl  0  0  0  0  0  0  0  0  0  0  0  0
   12.7162   -0.9136   22.2000 C   0  0  0  0  0  0  0  0  0  0  0  0
   13.0682    0.1175   23.0419 C   0  0  0  0  0  0  0  0  0  0  0  0
   12.0741    0.7344   23.7810 C   0  0  0  0  0  0  0  0  0  0  0  0
   10.7552    0.3312   23.6531 C   0  0  0  0  0  0  0  0  0  0  0  0
   11.4073   -1.3127   22.0440 C   0  0  0  0  0  0  0  0  0  0  0  0
   10.4062   -0.6858   22.7771 C   0  0  0  0  0  0  0  0  0  0  0  0
    8.9633   -1.0810   22.5852 C   0  0  1  0  0  0  0  0  0  0  0  0
    8.3471   -0.3061   21.4362 C   0  0  0  0  0  0  0  0  0  0  0  0
    8.8820    0.7239   21.0342 O   0  0  0  0  0  0  0  0  0  0  0  0
    7.1931   -0.7533   20.8923 N   0  0  0  0  0  0  0  0  0  0  0  0
    6.5843   -1.9933   21.3763 C   0  0  1  0  0  0  0  0  0  0  0  0
    6.5440   -0.0844   19.8153 C   0  0  0  0  0  0  0  0  0  0  0  0
    5.4249    0.7285   20.1044 C   0  0  0  0  0  0  0  0  0  0  0  0
    4.9000    0.9185   21.4054 C   0  0  0  0  0  0  0  0  0  0  0  0
    3.7919    1.6893   21.6074 C   0  0  0  0  0  0  0  0  0  0  0  0
    3.1627    2.3172   20.5385 C   0  0  0  0  0  0  0  0  0  0  0  0
    3.6417    2.1783   19.2684 C   0  0  0  0  0  0  0  0  0  0  0  0
    4.7838    1.3764   19.0174 C   0  0  0  0  0  0  0  0  0  0  0  0
    5.3157    1.1644   17.7224 C   0  0  0  0  0  0  0  0  0  0  0  0
    6.3748    0.3986   17.4663 N   0  0  0  0  0  0  0  0  0  0  0  0
    6.9679   -0.2033   18.5003 C   0  0  0  0  0  0  0  0  0  0  0  0
   14.0964    0.4374   23.1236 H   0  0  0  0  0  0  0  0  0  0  0  0
   12.3280    1.5341   24.4608 H   0  0  0  0  0  0  0  0  0  0  0  0
    9.9897    0.8144   24.2422 H   0  0  0  0  0  0  0  0  0  0  0  0
   11.1600   -2.1080   21.3564 H   0  0  0  0  0  0  0  0  0  0  0  0
    8.9092   -2.1575   22.3656 H   0  0  0  0  0  0  0  0  0  0  0  0
    8.4037   -0.8664   23.5075 H   0  0  0  0  0  0  0  0  0  0  0  0
    5.6585   -2.1909   20.8162 H   0  0  0  0  0  0  0  0  0  0  0  0
    7.2862   -2.8277   21.2303 H   0  0  0  0  0  0  0  0  0  0  0  0
    6.3510   -1.8936   22.4467 H   0  0  0  0  0  0  0  0  0  0  0  0
    5.3826    0.4473   22.2489 H   0  0  0  0  0  0  0  0  0  0  0  0
    3.4004    1.8126   22.6065 H   0  0  0  0  0  0  0  0  0  0  0  0
    2.2853    2.9216   20.7152 H   0  0  0  0  0  0  0  0  0  0  0  0
    3.1483    2.6817   18.4502 H   0  0  0  0  0  0  0  0  0  0  0  0
    4.8324    1.6546   16.8902 H   0  0  0  0  0  0  0  0  0  0  0  0
    7.8310   -0.8209   18.3000 H   0  0  0  0  0  0  0  0  0  0  0  0
  1  2  1  0
  2  3  2  0
  2  6  1  0
  3  4  1  0
  3 23  1  0
  4  5  2  0
  4 24  1  0
  5  7  1  0
  5 25  1  0
  6  7  2  0
  6 26  1  0
  7  8  1  0
  8  9  1  0
  8 27  1  6
  8 28  1  0
  9 10  2  0
  9 11  1  0
 11 12  1  0
 11 13  1  0
 12 29  1  6
 12 30  1  0
 12 31  1  0
 13 14  2  0
 13 22  1  0
 14 15  1  0
 14 19  1  0
 15 16  2  0
 15 32  1  0
 16 17  1  0
 16 33  1  0
 17 18  2  0
 17 34  1  0
 18 19  1  0
 18 35  1  0
 19 20  2  0
 20 21  1  0
 20 36  1  0
 21 22  2  0
 22 37  1  0
M  END
$$$$
