LIG(A-305)
     RDKit          3D

 43 46  0  0  1  0  0  0  0  0999 V2000
   13.9615   -1.6315   21.2969 Cl  0  0  0  0  0  0  0  0  0  0  0  0
   12.6396   -1.0264   22.2530 C   0  0  0  0  0  0  0  0  0  0  0  0
   11.3716   -1.4964   22.0031 C   0  0  0  0  0  0  0  0  0  0  0  0
   12.8867   -0.1014   23.2389 C   0  0  0  0  0  0  0  0  0  0  0  0
   11.8368    0.3506   24.0220 C   0  0  0  0  0  0  0  0  0  0  0  0
   10.5407   -0.1034   23.7842 C   0  0  0  0  0  0  0  0  0  0  0  0
    9.4598    0.3287   24.5552 N   0  0  0  0  0  0  0  0  0  0  0  0
    9.6729    1.2597   25.6612 C   0  0  1  0  0  0  0  0  0  0  0  0
   10.3016   -1.0294   22.7582 C   0  0  0  0  0  0  0  0  0  0  0  0
    8.9036   -1.5054   22.4293 C   0  0  1  0  0  0  0  0  0  0  0  0
    7.9847   -1.4384   23.6704 C   0  0  1  0  0  0  0  0  0  0  0  0
    8.0708   -0.0703   24.3434 C   0  0  2  0  0  0  0  0  0  0  0  0
    8.4665   -0.5674   21.3064 C   0  0  0  0  0  0  0  0  0  0  0  0
    9.0635    0.4796   21.0563 O   0  0  0  0  0  0  0  0  0  0  0  0
    7.3764   -0.9794   20.6285 N   0  0  0  0  0  0  0  0  0  0  0  0
    6.6574   -0.2595   19.6635 C   0  0  0  0  0  0  0  0  0  0  0  0
    5.5464    0.5246   20.1006 C   0  0  0  0  0  0  0  0  0  0  0  0
    5.0695    0.5436   21.4376 C   0  0  0  0  0  0  0  0  0  0  0  0
    3.9856    1.2976   21.7847 C   0  0  0  0  0  0  0  0  0  0  0  0
    3.3295    2.0696   20.8387 C   0  0  0  0  0  0  0  0  0  0  0  0
    3.7594    2.0985   19.5447 C   0  0  0  0  0  0  0  0  0  0  0  0
    4.8753    1.3245   19.1386 C   0  0  0  0  0  0  0  0  0  0  0  0
    5.3582    1.2935   17.8086 C   0  0  0  0  0  0  0  0  0  0  0  0
    6.3892    0.5575   17.4035 N   0  0  0  0  0  0  0  0  0  0  0  0
    7.0102   -0.1945   18.3165 C   0  0  0  0  0  0  0  0  0  0  0  0
   11.2075   -2.2255   21.2234 H   0  0  0  0  0  0  0  0  0  0  0  0
   13.8880    0.2690   23.4015 H   0  0  0  0  0  0  0  0  0  0  0  0
   12.0230    1.0561   24.8183 H   0  0  0  0  0  0  0  0  0  0  0  0
    8.7104    1.4810   26.1456 H   0  0  0  0  0  0  0  0  0  0  0  0
   10.3568    0.8074   26.3944 H   0  0  0  0  0  0  0  0  0  0  0  0
   10.1124    2.1917   25.2762 H   0  0  0  0  0  0  0  0  0  0  0  0
    8.9390   -2.5394   22.0557 H   0  0  0  0  0  0  0  0  0  0  0  0
    6.9457   -1.6210   23.3587 H   0  0  0  0  0  0  0  0  0  0  0  0
    8.2935   -2.2123   24.3885 H   0  0  0  0  0  0  0  0  0  0  0  0
    7.5769    0.6757   23.7035 H   0  0  0  0  0  0  0  0  0  0  0  0
    7.5585   -0.1161   25.3157 H   0  0  0  0  0  0  0  0  0  0  0  0
    7.0442   -1.8994   20.8365 H   0  0  0  0  0  0  0  0  0  0  0  0
    5.5711   -0.0464   22.1905 H   0  0  0  0  0  0  0  0  0  0  0  0
    3.6359    1.2926   22.8065 H   0  0  0  0  0  0  0  0  0  0  0  0
    2.4691    2.6541   21.1293 H   0  0  0  0  0  0  0  0  0  0  0  0
    3.2452    2.7163   18.8233 H   0  0  0  0  0  0  0  0  0  0  0  0
    4.8568    1.9074   17.0749 H   0  0  0  0  0  0  0  0  0  0  0  0
    7.8454   -0.7950   17.9874 H   0  0  0  0  0  0  0  0  0  0  0  0
  1  2  1  0
  2  3  2  0
  2  4  1  0
  3  9  1  0
  3 26  1  0
  4  5  2  0
  4 27  1  0
  5  6  1  0
  5 28  1  0
  6  7  1  0
  6  9  2  0
  7  8  1  0
  7 12  1  0
  8 29  1  1
  8 30  1  0
  8 31  1  0
  9 10  1  0
 10 11  1  0
 10 13  1  0
 10 32  1  6
 11 12  1  0
 11 33  1  6
 11 34  1  0
 12 35  1  6
 12 36  1  0
 13 14  2  0
 13 15  1  0
 15 16  1  0
 15 37  1  0
 16 17  2  0
 16 25  1  0
 17 18  1  0
 17 22  1  0
 18 19  2  0
 18 38  1  0
 19 20  1  0
 19 39  1  0
 20 21  2  0
 20 40  1  0
 21 22  1  0
 21 41  1  0
 22 23  2  0
 23 24  1  0
 23 42  1  0
 24 25  2  0
 25 43  1  0
M  END
$$$$
