LIG(A-307)
     RDKit          3D

 64 69  0  0  1  0  0  0  0  0999 V2000
    9.1219    7.2188   22.7611 N   0  0  0  0  0  0  0  0  0  0  0  0
    8.4551    6.2971   22.8092 C   0  0  0  0  0  0  0  0  0  0  0  0
    7.5981    5.1018   22.8115 C   0  0  1  0  0  0  0  0  0  0  0  0
    6.2154    5.2836   23.4040 C   0  0  1  0  0  0  0  0  0  0  0  0
    6.3697    5.2025   21.9318 C   0  0  2  0  0  0  0  0  0  0  0  0
    8.3746    3.7852   22.9323 C   0  0  1  0  0  0  0  0  0  0  0  0
    8.6914    3.0647   24.5351 S   0  0  2  0  0  0  0  0  0  0  0  0
    7.4618    2.5381   25.0344 O   0  0  0  0  0  0  0  0  0  0  0  0
    9.4084    4.0206   25.3173 O   0  0  0  0  0  0  0  0  0  0  0  0
    9.6917    1.8016   24.2850 N   0  0  0  0  0  0  0  0  0  0  0  0
    9.1993    0.4244   24.1186 C   0  0  1  0  0  0  0  0  0  0  0  0
   11.1183    1.8591   24.6347 C   0  0  1  0  0  0  0  0  0  0  0  0
   11.9558    1.0541   23.6557 C   0  0  0  0  0  0  0  0  0  0  0  0
   11.3873    0.0862   22.8112 C   0  0  0  0  0  0  0  0  0  0  0  0
   12.2030   -0.6130   21.9152 C   0  0  0  0  0  0  0  0  0  0  0  0
   13.5559   -0.3339   21.8626 C   0  0  0  0  0  0  0  0  0  0  0  0
   14.5557   -1.1984   20.7172 Cl  0  0  0  0  0  0  0  0  0  0  0  0
   14.1284    0.6127   22.6815 C   0  0  0  0  0  0  0  0  0  0  0  0
   13.3284    1.2957   23.5788 C   0  0  0  0  0  0  0  0  0  0  0  0
    9.8837   -0.1812   22.8691 C   0  0  1  0  0  0  0  0  0  0  0  0
    9.4395   -1.6532   22.6035 C   0  0  1  0  0  0  0  0  0  0  0  0
    9.4818   -2.5933   23.8076 C   0  0  1  0  0  0  0  0  0  0  0  0
   10.8971   -2.9576   24.2209 C   0  0  1  0  0  0  0  0  0  0  0  0
    9.2246    0.5360   21.6828 C   0  0  0  0  0  0  0  0  0  0  0  0
    9.5735    1.5927   21.2000 O   0  0  0  0  0  0  0  0  0  0  0  0
    8.1514   -0.2033   21.2836 N   0  0  0  0  0  0  0  0  0  0  0  0
    8.0538   -1.4846   21.9940 C   0  0  1  0  0  0  0  0  0  0  0  0
    7.2184    0.1692   20.2552 C   0  0  0  0  0  0  0  0  0  0  0  0
    6.0460    0.9377   20.5280 C   0  0  0  0  0  0  0  0  0  0  0  0
    5.6392    1.3346   21.8307 C   0  0  0  0  0  0  0  0  0  0  0  0
    4.5058    2.0753   22.0199 C   0  0  0  0  0  0  0  0  0  0  0  0
    3.7267    2.4692   20.9375 C   0  0  0  0  0  0  0  0  0  0  0  0
    4.0764    2.1162   19.6641 C   0  0  0  0  0  0  0  0  0  0  0  0
    5.2374    1.3388   19.4226 C   0  0  0  0  0  0  0  0  0  0  0  0
    5.6454    0.9370   18.1220 C   0  0  0  0  0  0  0  0  0  0  0  0
    6.7332    0.2220   17.8734 N   0  0  0  0  0  0  0  0  0  0  0  0
    7.4838   -0.1439   18.9253 C   0  0  0  0  0  0  0  0  0  0  0  0
    5.7406    4.4563   23.9518 H   0  0  0  0  0  0  0  0  0  0  0  0
    5.9421    6.2396   23.8746 H   0  0  0  0  0  0  0  0  0  0  0  0
    6.0087    4.3152   21.3910 H   0  0  0  0  0  0  0  0  0  0  0  0
    6.2102    6.0985   21.3139 H   0  0  0  0  0  0  0  0  0  0  0  0
    7.8150    3.0349   22.3545 H   0  0  0  0  0  0  0  0  0  0  0  0
    9.3550    3.9531   22.4628 H   0  0  0  0  0  0  0  0  0  0  0  0
    9.4511   -0.1719   25.0080 H   0  0  0  0  0  0  0  0  0  0  0  0
    8.1082    0.4324   23.9794 H   0  0  0  0  0  0  0  0  0  0  0  0
   11.4509    2.9074   24.6143 H   0  0  0  0  0  0  0  0  0  0  0  0
   11.2566    1.4502   25.6464 H   0  0  0  0  0  0  0  0  0  0  0  0
   11.7783   -1.3665   21.2683 H   0  0  0  0  0  0  0  0  0  0  0  0
   15.1869    0.8190   22.6240 H   0  0  0  0  0  0  0  0  0  0  0  0
   13.7742    2.0304   24.2329 H   0  0  0  0  0  0  0  0  0  0  0  0
   10.1032   -2.0650   21.8290 H   0  0  0  0  0  0  0  0  0  0  0  0
    8.9839   -2.1005   24.6557 H   0  0  0  0  0  0  0  0  0  0  0  0
    8.9417   -3.5168   23.5515 H   0  0  0  0  0  0  0  0  0  0  0  0
   10.8639   -3.6331   25.0885 H   0  0  0  0  0  0  0  0  0  0  0  0
   11.4053   -3.4598   23.3846 H   0  0  0  0  0  0  0  0  0  0  0  0
   11.4475   -2.0437   24.4887 H   0  0  0  0  0  0  0  0  0  0  0  0
    7.8271   -2.3052   21.2974 H   0  0  0  0  0  0  0  0  0  0  0  0
    7.2815   -1.4437   22.7763 H   0  0  0  0  0  0  0  0  0  0  0  0
    6.2348    1.0466   22.6845 H   0  0  0  0  0  0  0  0  0  0  0  0
    4.2125    2.3573   23.0203 H   0  0  0  0  0  0  0  0  0  0  0  0
    2.8377    3.0592   21.1045 H   0  0  0  0  0  0  0  0  0  0  0  0
    3.4623    2.4325   18.8339 H   0  0  0  0  0  0  0  0  0  0  0  0
    5.0310    1.2326   17.2843 H   0  0  0  0  0  0  0  0  0  0  0  0
    8.3676   -0.7305   18.7222 H   0  0  0  0  0  0  0  0  0  0  0  0
  1  2  3  0
  3  2  1  6
  3  4  1  0
  3  5  1  0
  3  6  1  0
  4  5  1  0
  4 38  1  1
  4 39  1  0
  5 40  1  6
  5 41  1  0
  6  7  1  0
  6 42  1  6
  6 43  1  0
  7  8  2  0
  7  9  2  0
  7 10  1  6
 10 11  1  0
 10 12  1  0
 11 20  1  0
 11 44  1  1
 11 45  1  0
 12 13  1  0
 12 46  1  1
 12 47  1  0
 13 14  2  0
 13 19  1  0
 14 15  1  0
 14 20  1  0
 15 16  2  0
 15 48  1  0
 16 17  1  0
 16 18  1  0
 18 19  2  0
 18 49  1  0
 19 50  1  0
 20 21  1  0
 20 24  1  6
 21 22  1  0
 21 27  1  0
 21 51  1  6
 22 23  1  0
 22 52  1  1
 22 53  1  0
 23 54  1  1
 23 55  1  0
 23 56  1  0
 24 25  2  0
 24 26  1  0
 26 27  1  0
 26 28  1  0
 27 57  1  6
 27 58  1  0
 28 29  2  0
 28 37  1  0
 29 30  1  0
 29 34  1  0
 30 31  2  0
 30 59  1  0
 31 32  1  0
 31 60  1  0
 32 33  2  0
 32 61  1  0
 33 34  1  0
 33 62  1  0
 34 35  2  0
 35 36  1  0
 35 63  1  0
 36 37  2  0
 37 64  1  0
M  END
$$$$
