LIG(A-305)
     RDKit          3D

 49 52  0  0  0  0  0  0  0  0999 V2000
    9.1213    1.4209   20.9891 O   0  0  0  0  0  0  0  0  0  0  0  0
    8.8963    0.3780   21.5852 C   0  0  0  0  0  0  0  0  0  0  0  0
    9.2963    0.1770   22.8762 N   0  0  0  0  0  0  0  0  0  0  0  0
    9.7105    1.3550   23.6321 C   0  0  1  0  0  0  0  0  0  0  0  0
   11.1805    1.6499   23.4680 C   0  0  0  0  0  0  0  0  0  0  0  0
   11.7495    2.8869   23.0459 C   0  0  0  0  0  0  0  0  0  0  0  0
   13.1225    2.8338   22.9228 C   0  0  0  0  0  0  0  0  0  0  0  0
   13.7084    1.2708   23.3328 S   0  0  0  0  0  0  0  0  0  0  0  0
   12.1344    0.6949   23.6599 C   0  0  0  0  0  0  0  0  0  0  0  0
    9.1813   -1.0650   23.5682 C   0  0  0  0  0  0  0  0  0  0  0  0
    8.9124   -1.1009   24.9313 C   0  0  0  0  0  0  0  0  0  0  0  0
    8.8394   -2.3088   25.6033 C   0  0  0  0  0  0  0  0  0  0  0  0
    9.5812   -2.2360   22.9383 C   0  0  0  0  0  0  0  0  0  0  0  0
    9.5382   -3.4440   23.6093 C   0  0  0  0  0  0  0  0  0  0  0  0
    9.1623   -3.5059   24.9564 C   0  0  0  0  0  0  0  0  0  0  0  0
    9.1483   -4.7029   25.6314 N   0  0  0  0  0  0  0  0  0  0  0  0
    8.2204   -4.9268   26.7315 C   0  0  1  0  0  0  0  0  0  0  0  0
    9.5172   -5.9299   24.9514 C   0  0  1  0  0  0  0  0  0  0  0  0
    8.0601   -0.7210   20.9253 C   0  0  1  0  0  0  0  0  0  0  0  0
    7.1931   -0.1790   19.8994 N   0  0  0  0  0  0  0  0  0  0  0  0
    6.0431    0.5390   20.0274 C   0  0  0  0  0  0  0  0  0  0  0  0
    5.2742    0.9291   21.1134 C   0  0  0  0  0  0  0  0  0  0  0  0
    4.1393    1.6842   20.8555 C   0  0  0  0  0  0  0  0  0  0  0  0
    3.7972    2.0451   19.5535 C   0  0  0  0  0  0  0  0  0  0  0  0
    4.5791    1.6541   18.4745 C   0  0  0  0  0  0  0  0  0  0  0  0
    5.7121    0.8850   18.7214 C   0  0  0  0  0  0  0  0  0  0  0  0
    6.6590    0.3609   17.8734 N   0  0  0  0  0  0  0  0  0  0  0  0
    7.5350   -0.2801   18.5903 N   0  0  0  0  0  0  0  0  0  0  0  0
    9.1336    2.2228   23.2797 H   0  0  0  0  0  0  0  0  0  0  0  0
    9.5004    1.1836   24.6982 H   0  0  0  0  0  0  0  0  0  0  0  0
   11.1665    3.7732   22.8436 H   0  0  0  0  0  0  0  0  0  0  0  0
   13.7437    3.6605   22.6116 H   0  0  0  0  0  0  0  0  0  0  0  0
   11.9188   -0.3129   23.9827 H   0  0  0  0  0  0  0  0  0  0  0  0
    8.7590   -0.1781   25.4709 H   0  0  0  0  0  0  0  0  0  0  0  0
    8.5299   -2.3271   26.6379 H   0  0  0  0  0  0  0  0  0  0  0  0
    9.9285   -2.2029   21.9161 H   0  0  0  0  0  0  0  0  0  0  0  0
    9.7983   -4.3527   23.0870 H   0  0  0  0  0  0  0  0  0  0  0  0
    8.3672   -5.9392   27.1354 H   0  0  0  0  0  0  0  0  0  0  0  0
    8.4050   -4.1858   27.5233 H   0  0  0  0  0  0  0  0  0  0  0  0
    7.1877   -4.8239   26.3667 H   0  0  0  0  0  0  0  0  0  0  0  0
    9.4445   -6.7744   25.6526 H   0  0  0  0  0  0  0  0  0  0  0  0
    8.8368   -6.0979   24.1035 H   0  0  0  0  0  0  0  0  0  0  0  0
   10.5500   -5.8480   24.5822 H   0  0  0  0  0  0  0  0  0  0  0  0
    8.7356   -1.4602   20.4698 H   0  0  0  0  0  0  0  0  0  0  0  0
    7.4436   -1.2117   21.6929 H   0  0  0  0  0  0  0  0  0  0  0  0
    5.5484    0.6557   22.1216 H   0  0  0  0  0  0  0  0  0  0  0  0
    3.5110    1.9972   21.6763 H   0  0  0  0  0  0  0  0  0  0  0  0
    2.9109    2.6378   19.3811 H   0  0  0  0  0  0  0  0  0  0  0  0
    4.3140    1.9401   17.4674 H   0  0  0  0  0  0  0  0  0  0  0  0
  1  2  2  0
  2  3  1  0
  2 19  1  0
  3  4  1  0
  3 10  1  0
  4  5  1  0
  4 29  1  6
  4 30  1  0
  5  6  1  0
  5  9  2  0
  6  7  2  0
  6 31  1  0
  7  8  1  0
  7 32  1  0
  8  9  1  0
  9 33  1  0
 10 11  2  0
 10 13  1  0
 11 12  1  0
 11 34  1  0
 12 15  2  0
 12 35  1  0
 13 14  2  0
 13 36  1  0
 14 15  1  0
 14 37  1  0
 15 16  1  0
 16 17  1  0
 16 18  1  0
 17 38  1  1
 17 39  1  0
 17 40  1  0
 18 41  1  1
 18 42  1  0
 18 43  1  0
 19 20  1  0
 19 44  1  6
 19 45  1  0
 20 21  1  0
 20 28  1  0
 21 22  2  0
 21 26  1  0
 22 23  1  0
 22 46  1  0
 23 24  2  0
 23 47  1  0
 24 25  1  0
 24 48  1  0
 25 26  2  0
 25 49  1  0
 26 27  1  0
 27 28  2  0
M  END
$$$$
