LIG(A-305)
     RDKit          3D

 36 38  0  0  1  0  0  0  0  0999 V2000
   13.8661    6.9379   22.5463 O   0  0  0  0  0  0  0  0  0  0  0  0
   13.6051    5.7589   22.7614 C   0  0  0  0  0  0  0  0  0  0  0  0
   14.1571    4.6739   23.6714 C   0  0  1  0  0  0  0  0  0  0  0  0
   12.7369    4.9109   22.1806 N   0  0  0  0  0  0  0  0  0  0  0  0
   13.4160    3.7069   22.7356 C   0  0  2  0  0  0  0  0  0  0  0  0
   12.4970    2.9100   23.5278 O   0  0  0  0  0  0  0  0  0  0  0  0
   12.3509    1.6260   23.0509 C   0  0  0  0  0  0  0  0  0  0  0  0
   13.3969    0.7309   23.1957 C   0  0  0  0  0  0  0  0  0  0  0  0
   13.2378   -0.5731   22.7548 C   0  0  0  0  0  0  0  0  0  0  0  0
   12.0457   -0.9821   22.1780 C   0  0  0  0  0  0  0  0  0  0  0  0
   11.1588    1.2410   22.4541 C   0  0  0  0  0  0  0  0  0  0  0  0
   11.0087   -0.0710   22.0102 C   0  0  0  0  0  0  0  0  0  0  0  0
    9.8216   -0.5420   21.4034 N   0  0  0  0  0  0  0  0  0  0  0  0
    8.7035    0.1490   21.0925 C   0  0  0  0  0  0  0  0  0  0  0  0
    8.6566    1.3720   20.9985 O   0  0  0  0  0  0  0  0  0  0  0  0
    7.4835   -0.7169   20.8557 C   0  0  1  0  0  0  0  0  0  0  0  0
    6.5713   -0.1760   19.7799 C   0  0  0  0  0  0  0  0  0  0  0  0
    6.9731   -0.1400   18.4548 C   0  0  0  0  0  0  0  0  0  0  0  0
    6.3810    0.6139   17.5228 N   0  0  0  0  0  0  0  0  0  0  0  0
    5.3581    1.3550   17.9490 C   0  0  0  0  0  0  0  0  0  0  0  0
    4.8853    1.4281   19.1950 N   0  0  0  0  0  0  0  0  0  0  0  0
    5.5114    0.6581   20.0920 C   0  0  0  0  0  0  0  0  0  0  0  0
   15.2528    4.5767   23.6740 H   0  0  0  0  0  0  0  0  0  0  0  0
   13.7888    4.6986   24.7076 H   0  0  0  0  0  0  0  0  0  0  0  0
   11.9362    5.0403   21.5957 H   0  0  0  0  0  0  0  0  0  0  0  0
   14.0607    3.1572   22.0340 H   0  0  0  0  0  0  0  0  0  0  0  0
   14.3263    1.0453   23.6472 H   0  0  0  0  0  0  0  0  0  0  0  0
   14.0498   -1.2770   22.8616 H   0  0  0  0  0  0  0  0  0  0  0  0
   11.9224   -2.0067   21.8595 H   0  0  0  0  0  0  0  0  0  0  0  0
   10.3546    1.9520   22.3348 H   0  0  0  0  0  0  0  0  0  0  0  0
    9.8080   -1.5153   21.1741 H   0  0  0  0  0  0  0  0  0  0  0  0
    7.8196   -1.7209   20.5572 H   0  0  0  0  0  0  0  0  0  0  0  0
    6.9149   -0.7848   21.7949 H   0  0  0  0  0  0  0  0  0  0  0  0
    7.8102   -0.7546   18.1583 H   0  0  0  0  0  0  0  0  0  0  0  0
    4.8589    1.9606   17.2071 H   0  0  0  0  0  0  0  0  0  0  0  0
    5.1712    0.6889   21.1165 H   0  0  0  0  0  0  0  0  0  0  0  0
  1  2  2  0
  2  3  1  0
  2  4  1  0
  3  5  1  0
  3 23  1  1
  3 24  1  0
  4  5  1  0
  4 25  1  0
  5  6  1  0
  5 26  1  6
  6  7  1  0
  7  8  2  0
  7 11  1  0
  8  9  1  0
  8 27  1  0
  9 10  2  0
  9 28  1  0
 10 12  1  0
 10 29  1  0
 11 12  2  0
 11 30  1  0
 12 13  1  0
 13 14  1  0
 13 31  1  0
 14 15  2  0
 14 16  1  0
 16 17  1  0
 16 32  1  6
 16 33  1  0
 17 18  2  0
 17 22  1  0
 18 19  1  0
 18 34  1  0
 19 20  2  0
 20 21  1  0
 20 35  1  0
 21 22  2  0
 22 36  1  0
M  END
$$$$
