LIG(A-306)
     RDKit          3D

 43 46  0  0  1  0  0  0  0  0999 V2000
    9.3061    1.1806   21.2603 O   0  0  0  0  0  0  0  0  0  0  0  0
    8.8512    0.1223   21.6811 C   0  0  0  0  0  0  0  0  0  0  0  0
    9.4777   -0.6452   22.8793 C   0  0  1  0  0  0  0  0  0  0  0  0
   10.9776   -0.4557   22.8562 C   0  0  0  0  0  0  0  0  0  0  0  0
   11.7651   -1.1157   21.9168 C   0  0  0  0  0  0  0  0  0  0  0  0
   13.1333   -1.0110   22.0012 C   0  0  0  0  0  0  0  0  0  0  0  0
   13.8803   -1.6321   21.0478 F   0  0  0  0  0  0  0  0  0  0  0  0
   13.7883   -0.2916   22.9718 C   0  0  0  0  0  0  0  0  0  0  0  0
   13.0039    0.3569   23.8885 C   0  0  0  0  0  0  0  0  0  0  0  0
   13.5902    1.0885   24.8633 F   0  0  0  0  0  0  0  0  0  0  0  0
   11.6207    0.2874   23.8669 C   0  0  0  0  0  0  0  0  0  0  0  0
   10.9409    0.8982   24.8871 O   0  0  0  0  0  0  0  0  0  0  0  0
    9.5674    1.1959   24.5886 C   0  0  1  0  0  0  0  0  0  0  0  0
    8.8244   -0.0426   24.1334 C   0  0  2  0  0  0  0  0  0  0  0  0
    9.1357   -2.0251   22.6919 O   0  0  0  0  0  0  0  0  0  0  0  0
    9.5167   -2.9389   23.7276 C   0  0  1  0  0  0  0  0  0  0  0  0
    7.7621   -0.4763   21.1579 N   0  0  0  0  0  0  0  0  0  0  0  0
    7.0117   -0.0310   20.0547 C   0  0  0  0  0  0  0  0  0  0  0  0
    5.8607    0.7801   20.2976 C   0  0  0  0  0  0  0  0  0  0  0  0
    5.4064    1.1391   21.5937 C   0  0  0  0  0  0  0  0  0  0  0  0
    4.3201    1.9517   21.7559 C   0  0  0  0  0  0  0  0  0  0  0  0
    3.6337    2.4419   20.6559 C   0  0  0  0  0  0  0  0  0  0  0  0
    4.0305    2.1243   19.3894 C   0  0  0  0  0  0  0  0  0  0  0  0
    5.1530    1.2868   19.1747 C   0  0  0  0  0  0  0  0  0  0  0  0
    5.6341    0.9522   17.8875 C   0  0  0  0  0  0  0  0  0  0  0  0
    6.6991    0.1970   17.6632 N   0  0  0  0  0  0  0  0  0  0  0  0
    7.3566   -0.2794   18.7282 C   0  0  0  0  0  0  0  0  0  0  0  0
   11.3077   -1.7015   21.1332 H   0  0  0  0  0  0  0  0  0  0  0  0
   14.8665   -0.2402   23.0098 H   0  0  0  0  0  0  0  0  0  0  0  0
    9.0821    1.5935   25.4922 H   0  0  0  0  0  0  0  0  0  0  0  0
    9.5295    1.9509   23.7895 H   0  0  0  0  0  0  0  0  0  0  0  0
    8.8398   -0.7890   24.9413 H   0  0  0  0  0  0  0  0  0  0  0  0
    7.7830    0.2266   23.9029 H   0  0  0  0  0  0  0  0  0  0  0  0
    9.1952   -3.9554   23.4569 H   0  0  0  0  0  0  0  0  0  0  0  0
   10.6098   -2.9202   23.8491 H   0  0  0  0  0  0  0  0  0  0  0  0
    9.0376   -2.6424   24.6724 H   0  0  0  0  0  0  0  0  0  0  0  0
    7.4575   -1.3210   21.5981 H   0  0  0  0  0  0  0  0  0  0  0  0
    5.9264    0.7649   22.4632 H   0  0  0  0  0  0  0  0  0  0  0  0
    3.9929    2.2147   22.7510 H   0  0  0  0  0  0  0  0  0  0  0  0
    2.7762    3.0818   20.8026 H   0  0  0  0  0  0  0  0  0  0  0  0
    3.4841    2.5146   18.5436 H   0  0  0  0  0  0  0  0  0  0  0  0
    5.0986    1.3371   17.0323 H   0  0  0  0  0  0  0  0  0  0  0  0
    8.2190   -0.9032   18.5448 H   0  0  0  0  0  0  0  0  0  0  0  0
  1  2  2  0
  2  3  1  0
  2 17  1  0
  3  4  1  0
  3 14  1  0
  3 15  1  6
  4  5  2  0
  4 11  1  0
  5  6  1  0
  5 28  1  0
  6  7  1  0
  6  8  2  0
  8  9  1  0
  8 29  1  0
  9 10  1  0
  9 11  2  0
 11 12  1  0
 12 13  1  0
 13 14  1  0
 13 30  1  1
 13 31  1  0
 14 32  1  1
 14 33  1  0
 15 16  1  0
 16 34  1  6
 16 35  1  0
 16 36  1  0
 17 18  1  0
 17 37  1  0
 18 19  2  0
 18 27  1  0
 19 20  1  0
 19 24  1  0
 20 21  2  0
 20 38  1  0
 21 22  1  0
 21 39  1  0
 22 23  2  0
 22 40  1  0
 23 24  1  0
 23 41  1  0
 24 25  2  0
 25 26  1  0
 25 42  1  0
 26 27  2  0
 27 43  1  0
M  END
$$$$
