LIG(A-306)
     RDKit          3D

 44 48  0  0  1  0  0  0  0  0999 V2000
   14.0556   -1.7019   20.9175 Cl  0  0  0  0  0  0  0  0  0  0  0  0
   13.1321   -0.7705   22.0676 C   0  0  0  0  0  0  0  0  0  0  0  0
   13.7796    0.1730   22.8391 C   0  0  0  0  0  0  0  0  0  0  0  0
   13.0363    1.0251   23.6327 C   0  0  0  0  0  0  0  0  0  0  0  0
   11.7554   -0.9197   22.0960 C   0  0  0  0  0  0  0  0  0  0  0  0
   10.9871   -0.0497   22.8705 C   0  0  0  0  0  0  0  0  0  0  0  0
   11.6556    0.9178   23.6409 C   0  0  0  0  0  0  0  0  0  0  0  0
   11.0082    1.8013   24.4713 O   0  0  0  0  0  0  0  0  0  0  0  0
    9.5799    1.9270   24.3014 C   0  0  1  0  0  0  0  0  0  0  0  0
    8.9073    0.5873   24.0908 C   0  0  1  0  0  0  0  0  0  0  0  0
    9.4532   -0.0997   22.8264 C   0  0  2  0  0  0  0  0  0  0  0  0
    8.8205   -1.4201   22.6647 N   0  0  0  0  0  0  0  0  0  0  0  0
    9.0831   -2.5551   23.5474 C   0  0  1  0  0  0  0  0  0  0  0  0
    8.8397    0.6418   21.6035 C   0  0  0  0  0  0  0  0  0  0  0  0
    9.1371    1.7475   21.1931 O   0  0  0  0  0  0  0  0  0  0  0  0
    7.8980   -0.2264   21.0306 N   0  0  0  0  0  0  0  0  0  0  0  0
    7.8999   -1.4723   21.6598 C   0  0  0  0  0  0  0  0  0  0  0  0
    7.2013   -2.4274   21.3793 O   0  0  0  0  0  0  0  0  0  0  0  0
    7.0043    0.1511   19.9575 C   0  0  0  0  0  0  0  0  0  0  0  0
    5.8503    0.9397   20.2502 C   0  0  0  0  0  0  0  0  0  0  0  0
    5.4102    1.2752   21.5585 C   0  0  0  0  0  0  0  0  0  0  0  0
    4.2963    2.0414   21.7514 C   0  0  0  0  0  0  0  0  0  0  0  0
    3.5654    2.5163   20.6679 C   0  0  0  0  0  0  0  0  0  0  0  0
    3.9454    2.2228   19.3894 C   0  0  0  0  0  0  0  0  0  0  0  0
    5.0924    1.4254   19.1456 C   0  0  0  0  0  0  0  0  0  0  0  0
    5.5315    1.0830   17.8414 C   0  0  0  0  0  0  0  0  0  0  0  0
    6.6064    0.3474   17.5833 N   0  0  0  0  0  0  0  0  0  0  0  0
    7.3183   -0.0997   18.6268 C   0  0  0  0  0  0  0  0  0  0  0  0
   14.8571    0.2444   22.8226 H   0  0  0  0  0  0  0  0  0  0  0  0
   13.5280    1.7690   24.2420 H   0  0  0  0  0  0  0  0  0  0  0  0
   11.2807   -1.7028   21.5236 H   0  0  0  0  0  0  0  0  0  0  0  0
    9.1566    2.3981   25.2007 H   0  0  0  0  0  0  0  0  0  0  0  0
    9.3823    2.5636   23.4263 H   0  0  0  0  0  0  0  0  0  0  0  0
    9.0996   -0.0550   24.9630 H   0  0  0  0  0  0  0  0  0  0  0  0
    7.8236    0.7402   23.9800 H   0  0  0  0  0  0  0  0  0  0  0  0
    8.4911   -3.4214   23.2175 H   0  0  0  0  0  0  0  0  0  0  0  0
   10.1532   -2.8072   23.5118 H   0  0  0  0  0  0  0  0  0  0  0  0
    8.8028   -2.2906   24.5778 H   0  0  0  0  0  0  0  0  0  0  0  0
    5.9649    0.9188   22.4138 H   0  0  0  0  0  0  0  0  0  0  0  0
    3.9797    2.2810   22.7559 H   0  0  0  0  0  0  0  0  0  0  0  0
    2.6885    3.1231   20.8390 H   0  0  0  0  0  0  0  0  0  0  0  0
    3.3685    2.6007   18.5583 H   0  0  0  0  0  0  0  0  0  0  0  0
    4.9541    1.4443   17.0034 H   0  0  0  0  0  0  0  0  0  0  0  0
    8.1952   -0.6952   18.4199 H   0  0  0  0  0  0  0  0  0  0  0  0
  1  2  1  0
  2  3  2  0
  2  5  1  0
  3  4  1  0
  3 29  1  0
  4  7  2  0
  4 30  1  0
  5  6  2  0
  5 31  1  0
  6  7  1  0
  6 11  1  0
  7  8  1  0
  8  9  1  0
  9 10  1  0
  9 32  1  1
  9 33  1  0
 10 11  1  0
 10 34  1  1
 10 35  1  0
 11 12  1  1
 11 14  1  0
 12 13  1  0
 12 17  1  0
 13 36  1  6
 13 37  1  0
 13 38  1  0
 14 15  2  0
 14 16  1  0
 16 17  1  0
 16 19  1  0
 17 18  2  0
 19 20  2  0
 19 28  1  0
 20 21  1  0
 20 25  1  0
 21 22  2  0
 21 39  1  0
 22 23  1  0
 22 40  1  0
 23 24  2  0
 23 41  1  0
 24 25  1  0
 24 42  1  0
 25 26  2  0
 26 27  1  0
 26 43  1  0
 27 28  2  0
 28 44  1  0
M  END
$$$$
