LIG(A-305)
     RDKit          3D

 35 35  0  0  1  0  0  0  0  0999 V2000
    7.8177    4.8516   22.6072 C   0  0  1  0  0  0  0  0  0  0  0  0
    7.0421   -0.3184   20.1404 C   0  0  0  0  0  0  0  0  0  0  0  0
    9.1204    0.3285   22.3552 C   0  0  0  0  0  0  0  0  0  0  0  0
   10.0502   -1.8566   21.8962 C   0  0  1  0  0  0  0  0  0  0  0  0
   11.4312   -1.6547   22.3401 C   0  0  0  0  0  0  0  0  0  0  0  0
   12.5713   -1.6997   22.7420 C   0  0  0  0  0  0  0  0  0  0  0  0
    7.3686    3.4736   22.9693 C   0  0  0  0  0  0  0  0  0  0  0  0
    7.9315    1.0966   22.9163 C   0  0  2  0  0  0  0  0  0  0  0  0
    6.5984    0.4587   22.4934 C   0  0  1  0  0  0  0  0  0  0  0  0
    6.3603    0.5217   21.0054 C   0  0  0  0  0  0  0  0  0  0  0  0
    5.4793    1.4437   20.4575 C   0  0  0  0  0  0  0  0  0  0  0  0
    5.2792    1.5247   19.0895 C   0  0  0  0  0  0  0  0  0  0  0  0
    5.9721    0.6706   18.2485 C   0  0  0  0  0  0  0  0  0  0  0  0
    6.8580   -0.2484   18.7724 C   0  0  0  0  0  0  0  0  0  0  0  0
    8.0645    2.4676   22.4453 N   0  0  0  0  0  0  0  0  0  0  0  0
    9.1573   -0.9745   22.6172 N   0  0  0  0  0  0  0  0  0  0  0  0
    6.3917    3.2657   23.6804 O   0  0  0  0  0  0  0  0  0  0  0  0
    5.8200    0.7386   16.9055 O   0  0  0  0  0  0  0  0  0  0  0  0
    9.9683    0.8994   21.6761 O   0  0  0  0  0  0  0  0  0  0  0  0
   14.2653   -2.0188   23.6279 Br  0  0  0  0  0  0  0  0  0  0  0  0
    7.1472    5.5900   23.0711 H   0  0  0  0  0  0  0  0  0  0  0  0
    8.8440    5.0097   22.9699 H   0  0  0  0  0  0  0  0  0  0  0  0
    7.7928    4.9698   21.5139 H   0  0  0  0  0  0  0  0  0  0  0  0
    7.7328   -1.0441   20.5439 H   0  0  0  0  0  0  0  0  0  0  0  0
    9.9801   -1.6430   20.8194 H   0  0  0  0  0  0  0  0  0  0  0  0
    9.7579   -2.9006   22.0826 H   0  0  0  0  0  0  0  0  0  0  0  0
    7.9907    1.0796   24.0146 H   0  0  0  0  0  0  0  0  0  0  0  0
    6.6009   -0.5967   22.8035 H   0  0  0  0  0  0  0  0  0  0  0  0
    5.7795    0.9883   23.0021 H   0  0  0  0  0  0  0  0  0  0  0  0
    4.9387    2.1118   21.1115 H   0  0  0  0  0  0  0  0  0  0  0  0
    4.5884    2.2480   18.6821 H   0  0  0  0  0  0  0  0  0  0  0  0
    7.4049   -0.9098   18.1167 H   0  0  0  0  0  0  0  0  0  0  0  0
    8.7028    2.6606   21.7000 H   0  0  0  0  0  0  0  0  0  0  0  0
    8.5584   -1.3513   23.3240 H   0  0  0  0  0  0  0  0  0  0  0  0
    5.7885    1.6489   16.6355 H   0  0  0  0  0  0  0  0  0  0  0  0
  1  7  1  0
  1 21  1  1
  1 22  1  0
  1 23  1  0
  2 10  2  0
  2 14  1  0
  2 24  1  0
  3  8  1  0
  3 16  1  0
  3 19  2  0
  4  5  1  0
  4 16  1  0
  4 25  1  6
  4 26  1  0
  5  6  3  0
  6 20  1  0
  7 15  1  0
  7 17  2  0
  8  9  1  0
  8 15  1  0
  8 27  1  1
  9 10  1  0
  9 28  1  1
  9 29  1  0
 10 11  1  0
 11 12  2  0
 11 30  1  0
 12 13  1  0
 12 31  1  0
 13 14  2  0
 13 18  1  0
 14 32  1  0
 15 33  1  0
 16 34  1  0
 18 35  1  0
M  END
$$$$
