LIG(A-306)
     RDKit          3D

 53 56  0  0  0  0  0  0  0  0999 V2000
    8.9561    1.4603   20.8933 O   0  0  0  0  0  0  0  0  0  0  0  0
    8.5638    0.5097   21.5560 C   0  0  0  0  0  0  0  0  0  0  0  0
    7.5575   -0.4725   20.9807 C   0  0  1  0  0  0  0  0  0  0  0  0
    6.7390    0.1026   19.8427 C   0  0  0  0  0  0  0  0  0  0  0  0
    5.6569    0.9961   20.0949 C   0  0  0  0  0  0  0  0  0  0  0  0
    5.2559    1.3877   21.4020 C   0  0  0  0  0  0  0  0  0  0  0  0
    4.2272    2.2675   21.5871 C   0  0  0  0  0  0  0  0  0  0  0  0
    3.5427    2.7983   20.4991 C   0  0  0  0  0  0  0  0  0  0  0  0
    3.8841    2.4441   19.2252 C   0  0  0  0  0  0  0  0  0  0  0  0
    4.9503    1.5393   18.9890 C   0  0  0  0  0  0  0  0  0  0  0  0
    5.3728    1.1531   17.6953 C   0  0  0  0  0  0  0  0  0  0  0  0
    6.3766    0.3157   17.4612 N   0  0  0  0  0  0  0  0  0  0  0  0
    7.0226   -0.1887   18.5213 C   0  0  0  0  0  0  0  0  0  0  0  0
    8.9980    0.3009   22.8324 N   0  0  0  0  0  0  0  0  0  0  0  0
   10.0509    1.1630   23.3736 C   0  0  1  0  0  0  0  0  0  0  0  0
   11.3475    0.4344   23.6197 C   0  0  0  0  0  0  0  0  0  0  0  0
   12.0421   -0.1400   22.5625 C   0  0  0  0  0  0  0  0  0  0  0  0
   13.2109   -0.8334   22.8100 C   0  0  0  0  0  0  0  0  0  0  0  0
   14.0749   -1.5321   21.4699 Cl  0  0  0  0  0  0  0  0  0  0  0  0
   13.7113   -0.9831   24.0854 C   0  0  0  0  0  0  0  0  0  0  0  0
   13.0189   -0.4096   25.1407 C   0  0  0  0  0  0  0  0  0  0  0  0
   11.8483    0.2941   24.9069 C   0  0  0  0  0  0  0  0  0  0  0  0
    8.4211   -0.6582   23.7165 C   0  0  0  0  0  0  0  0  0  0  0  0
    7.4233   -0.2686   24.5989 C   0  0  0  0  0  0  0  0  0  0  0  0
    6.7121   -1.2248   25.2940 C   0  0  0  0  0  0  0  0  0  0  0  0
    8.6814   -2.0173   23.5589 C   0  0  0  0  0  0  0  0  0  0  0  0
    8.0023   -2.9619   24.2266 N   0  0  0  0  0  0  0  0  0  0  0  0
    7.0363   -2.5698   25.0787 C   0  0  0  0  0  0  0  0  0  0  0  0
    6.3667   -3.6072   25.7435 N   0  0  0  0  0  0  0  0  0  0  0  0
    5.3426   -3.5151   26.6342 C   0  0  0  0  0  0  0  0  0  0  0  0
    4.6184   -2.5218   26.7311 O   0  0  0  0  0  0  0  0  0  0  0  0
    5.1580   -4.7187   27.5095 C   0  0  1  0  0  0  0  0  0  0  0  0
    8.1026   -1.3524   20.6085 H   0  0  0  0  0  0  0  0  0  0  0  0
    6.8711   -0.7791   21.7838 H   0  0  0  0  0  0  0  0  0  0  0  0
    5.7718    0.9838   22.2606 H   0  0  0  0  0  0  0  0  0  0  0  0
    3.9427    2.5538   22.5887 H   0  0  0  0  0  0  0  0  0  0  0  0
    2.7348    3.4960   20.6630 H   0  0  0  0  0  0  0  0  0  0  0  0
    3.3372    2.8566   18.3903 H   0  0  0  0  0  0  0  0  0  0  0  0
    4.8469    1.5644   16.8462 H   0  0  0  0  0  0  0  0  0  0  0  0
    7.8304   -0.8789   18.3277 H   0  0  0  0  0  0  0  0  0  0  0  0
   10.2379    1.9774   22.6582 H   0  0  0  0  0  0  0  0  0  0  0  0
    9.7010    1.5855   24.3270 H   0  0  0  0  0  0  0  0  0  0  0  0
   11.6703   -0.0450   21.5529 H   0  0  0  0  0  0  0  0  0  0  0  0
   14.6232   -1.5352   24.2590 H   0  0  0  0  0  0  0  0  0  0  0  0
   13.3931   -0.5118   26.1487 H   0  0  0  0  0  0  0  0  0  0  0  0
   11.3188    0.7390   25.7364 H   0  0  0  0  0  0  0  0  0  0  0  0
    7.2044    0.7794   24.7410 H   0  0  0  0  0  0  0  0  0  0  0  0
    5.9292   -0.9445   25.9831 H   0  0  0  0  0  0  0  0  0  0  0  0
    9.4588   -2.3219   22.8738 H   0  0  0  0  0  0  0  0  0  0  0  0
    6.6823   -4.5332   25.5362 H   0  0  0  0  0  0  0  0  0  0  0  0
    4.3160   -4.5476   28.1964 H   0  0  0  0  0  0  0  0  0  0  0  0
    4.9473   -5.5983   26.8835 H   0  0  0  0  0  0  0  0  0  0  0  0
    6.0755   -4.8934   28.0906 H   0  0  0  0  0  0  0  0  0  0  0  0
  1  2  2  0
  2  3  1  0
  2 14  1  0
  3  4  1  0
  3 33  1  6
  3 34  1  0
  4  5  2  0
  4 13  1  0
  5  6  1  0
  5 10  1  0
  6  7  2  0
  6 35  1  0
  7  8  1  0
  7 36  1  0
  8  9  2  0
  8 37  1  0
  9 10  1  0
  9 38  1  0
 10 11  2  0
 11 12  1  0
 11 39  1  0
 12 13  2  0
 13 40  1  0
 14 15  1  0
 14 23  1  0
 15 16  1  0
 15 41  1  6
 15 42  1  0
 16 17  2  0
 16 22  1  0
 17 18  1  0
 17 43  1  0
 18 19  1  0
 18 20  2  0
 20 21  1  0
 20 44  1  0
 21 22  2  0
 21 45  1  0
 22 46  1  0
 23 24  2  0
 23 26  1  0
 24 25  1  0
 24 47  1  0
 25 28  2  0
 25 48  1  0
 26 27  2  0
 26 49  1  0
 27 28  1  0
 28 29  1  0
 29 30  1  0
 29 50  1  0
 30 31  2  0
 30 32  1  0
 32 51  1  1
 32 52  1  0
 32 53  1  0
M  END
$$$$
