LIG(A-305)
     RDKit          3D

 33 35  0  0  0  0  0  0  0  0999 V2000
    8.8080    1.0988   21.3631 O   0  0  0  0  0  0  0  0  0  0  0  0
    8.5182   -0.0902   21.3712 C   0  0  0  0  0  0  0  0  0  0  0  0
    9.0603   -1.0341   22.4283 C   0  0  1  0  0  0  0  0  0  0  0  0
   10.5223   -0.7779   22.7201 C   0  0  0  0  0  0  0  0  0  0  0  0
   10.9083    0.1532   23.6771 C   0  0  0  0  0  0  0  0  0  0  0  0
   12.2443    0.4874   23.8449 C   0  0  0  0  0  0  0  0  0  0  0  0
   13.2183   -0.1206   23.0669 C   0  0  0  0  0  0  0  0  0  0  0  0
   11.5044   -1.4048   21.9621 C   0  0  0  0  0  0  0  0  0  0  0  0
   12.8303   -1.0647   22.1420 C   0  0  0  0  0  0  0  0  0  0  0  0
   14.0383   -1.8406   21.1560 Cl  0  0  0  0  0  0  0  0  0  0  0  0
    7.8042   -0.6823   20.3983 N   0  0  0  0  0  0  0  0  0  0  0  0
    6.7581   -0.2095   19.5864 C   0  0  0  0  0  0  0  0  0  0  0  0
    5.6890    0.5984   20.1044 C   0  0  0  0  0  0  0  0  0  0  0  0
    5.2381    0.6645   21.4474 C   0  0  0  0  0  0  0  0  0  0  0  0
    4.1291    1.2774   21.8604 N   0  0  0  0  0  0  0  0  0  0  0  0
    3.3869    1.9062   20.9424 C   0  0  0  0  0  0  0  0  0  0  0  0
    3.7058    1.9652   19.6254 C   0  0  0  0  0  0  0  0  0  0  0  0
    4.8719    1.3003   19.1664 C   0  0  0  0  0  0  0  0  0  0  0  0
    5.1948    1.1872   17.7914 C   0  0  0  0  0  0  0  0  0  0  0  0
    6.1748    0.4353   17.3174 N   0  0  0  0  0  0  0  0  0  0  0  0
    6.9060   -0.2536   18.2004 C   0  0  0  0  0  0  0  0  0  0  0  0
    8.4839   -0.8981   23.3552 H   0  0  0  0  0  0  0  0  0  0  0  0
    8.9450   -2.0688   22.0732 H   0  0  0  0  0  0  0  0  0  0  0  0
   10.1591    0.6224   24.2975 H   0  0  0  0  0  0  0  0  0  0  0  0
   12.5266    1.2230   24.5836 H   0  0  0  0  0  0  0  0  0  0  0  0
   14.2596    0.1410   23.1838 H   0  0  0  0  0  0  0  0  0  0  0  0
   11.2312   -2.1553   21.2351 H   0  0  0  0  0  0  0  0  0  0  0  0
    8.0642   -1.6312   20.2196 H   0  0  0  0  0  0  0  0  0  0  0  0
    5.8436    0.1778   22.1976 H   0  0  0  0  0  0  0  0  0  0  0  0
    2.4811    2.3956   21.2689 H   0  0  0  0  0  0  0  0  0  0  0  0
    3.0800    2.5113   18.9350 H   0  0  0  0  0  0  0  0  0  0  0  0
    4.6032    1.7508   17.0852 H   0  0  0  0  0  0  0  0  0  0  0  0
    7.6769   -0.8992   17.8063 H   0  0  0  0  0  0  0  0  0  0  0  0
  1  2  2  0
  2  3  1  0
  2 11  1  0
  3  4  1  0
  3 22  1  1
  3 23  1  0
  4  5  2  0
  4  8  1  0
  5  6  1  0
  5 24  1  0
  6  7  2  0
  6 25  1  0
  7  9  1  0
  7 26  1  0
  8  9  2  0
  8 27  1  0
  9 10  1  0
 11 12  1  0
 11 28  1  0
 12 13  2  0
 12 21  1  0
 13 14  1  0
 13 18  1  0
 14 15  2  0
 14 29  1  0
 15 16  1  0
 16 17  2  0
 16 30  1  0
 17 18  1  0
 17 31  1  0
 18 19  2  0
 19 20  1  0
 19 32  1  0
 20 21  2  0
 21 33  1  0
M  END
$$$$
