LIG(A-306)
     RDKit          3D

 37 40  0  0  0  0  0  0  0  0999 V2000
    6.6807   -1.7711   21.5067 C   0  0  0  0  0  0  0  0  0  0  0  0
    7.5504   -1.9996   22.5181 N   0  0  0  0  0  0  0  0  0  0  0  0
    5.6689   -2.3753   21.2202 O   0  0  0  0  0  0  0  0  0  0  0  0
    8.7304   -1.1628   22.4108 C   0  0  1  0  0  0  0  0  0  0  0  0
    7.1402   -0.6058   20.8407 N   0  0  0  0  0  0  0  0  0  0  0  0
    9.0045    0.7924   21.0034 O   0  0  0  0  0  0  0  0  0  0  0  0
    9.3184   -0.4858   23.6717 C   0  0  1  0  0  0  0  0  0  0  0  0
    6.2835    0.5922   17.4763 N   0  0  0  0  0  0  0  0  0  0  0  0
   10.6160   -1.3036   23.4917 C   0  0  2  0  0  0  0  0  0  0  0  0
   11.9680   -0.5860   23.5815 C   0  0  1  0  0  0  0  0  0  0  0  0
   12.5256   -0.4941   25.0016 C   0  0  1  0  0  0  0  0  0  0  0  0
   13.4019   -1.7223   24.6849 C   0  0  1  0  0  0  0  0  0  0  0  0
   13.2526   -1.3504   23.2004 C   0  0  2  0  0  0  0  0  0  0  0  0
   10.0998   -1.8358   22.1374 C   0  0  2  0  0  0  0  0  0  0  0  0
    8.3639   -0.1821   21.3463 C   0  0  0  0  0  0  0  0  0  0  0  0
    6.4280    0.0710   19.7942 C   0  0  0  0  0  0  0  0  0  0  0  0
    6.8944   -0.0060   18.4928 C   0  0  0  0  0  0  0  0  0  0  0  0
    5.1931    1.3272   17.7222 C   0  0  0  0  0  0  0  0  0  0  0  0
    4.6822    1.4335   18.9977 C   0  0  0  0  0  0  0  0  0  0  0  0
    5.3014    0.8244   20.0571 C   0  0  0  0  0  0  0  0  0  0  0  0
    3.5479    2.1647   19.1916 F   0  0  0  0  0  0  0  0  0  0  0  0
    7.3982   -2.6640   23.2497 H   0  0  0  0  0  0  0  0  0  0  0  0
    9.4543    0.6017   23.5775 H   0  0  0  0  0  0  0  0  0  0  0  0
    8.7707   -0.7077   24.5994 H   0  0  0  0  0  0  0  0  0  0  0  0
   10.6094   -2.1311   24.2164 H   0  0  0  0  0  0  0  0  0  0  0  0
   11.9321    0.4012   23.0976 H   0  0  0  0  0  0  0  0  0  0  0  0
   13.0896    0.4268   25.2113 H   0  0  0  0  0  0  0  0  0  0  0  0
   11.7815   -0.6570   25.7951 H   0  0  0  0  0  0  0  0  0  0  0  0
   14.4299   -1.6660   25.0722 H   0  0  0  0  0  0  0  0  0  0  0  0
   12.9573   -2.6889   24.9641 H   0  0  0  0  0  0  0  0  0  0  0  0
   14.0606   -0.7181   22.8036 H   0  0  0  0  0  0  0  0  0  0  0  0
   13.0931   -2.2063   22.5281 H   0  0  0  0  0  0  0  0  0  0  0  0
   10.6327   -1.4351   21.2625 H   0  0  0  0  0  0  0  0  0  0  0  0
   10.0578   -2.9330   22.0703 H   0  0  0  0  0  0  0  0  0  0  0  0
    7.7909   -0.5752   18.2963 H   0  0  0  0  0  0  0  0  0  0  0  0
    4.7060    1.8449   16.9092 H   0  0  0  0  0  0  0  0  0  0  0  0
    4.9216    0.9300   21.0626 H   0  0  0  0  0  0  0  0  0  0  0  0
  1  2  1  0
  1  3  2  0
  1  5  1  0
  4  2  1  1
  2 22  1  0
  4  7  1  0
  4 14  1  0
  4 15  1  0
  5 15  1  0
  5 16  1  0
  6 15  2  0
  7  9  1  0
  7 23  1  6
  7 24  1  0
  8 17  1  0
  8 18  2  0
  9 10  1  0
  9 14  1  0
  9 25  1  1
 10 11  1  0
 10 13  1  0
 10 26  1  6
 11 12  1  0
 11 27  1  1
 11 28  1  0
 12 13  1  0
 12 29  1  1
 12 30  1  0
 13 31  1  6
 13 32  1  0
 14 33  1  6
 14 34  1  0
 16 17  2  0
 16 20  1  0
 17 35  1  0
 18 19  1  0
 18 36  1  0
 19 20  2  0
 19 21  1  0
 20 37  1  0
M  END
$$$$
