LIG(A-302)
     RDKit          3D

 30 31  0  0  1  0  0  0  0  0999 V2000
    7.7211   -0.7398   -4.7341 C   0  0  1  0  0  0  0  0  0  0  0  0
    6.2012   -2.5676   -5.4452 C   0  0  0  0  0  0  0  0  0  0  0  0
    5.3783   -2.7973   -6.4868 C   0  0  0  0  0  0  0  0  0  0  0  0
    5.4644   -1.6792   -7.3287 C   0  0  0  0  0  0  0  0  0  0  0  0
    4.7054   -1.4494   -8.6582 C   0  0  0  0  0  0  0  0  0  0  0  0
    3.2344   -2.2876  -10.5924 C   0  0  1  0  0  0  0  0  0  0  0  0
    4.1086   -2.6960  -11.7390 C   0  0  2  0  0  0  0  0  0  0  0  0
    3.3773   -2.3419  -13.1833 C   0  0  1  0  0  0  0  0  0  0  0  0
    3.8217   -3.2023  -14.0356 C   0  0  1  0  0  0  0  0  0  0  0  0
    4.3337   -4.4375  -13.2008 C   0  0  1  0  0  0  0  0  0  0  0  0
    6.7570   -1.3799   -5.6440 N   0  0  0  0  0  0  0  0  0  0  0  0
    3.9614   -2.5387   -9.3197 N   0  0  0  0  0  0  0  0  0  0  0  0
    6.2927   -0.8416   -6.7967 N   0  0  0  0  0  0  0  0  0  0  0  0
    4.7160   -0.3642   -9.1217 O   0  0  0  0  0  0  0  0  0  0  0  0
    4.2948   -3.9876  -11.7184 O   0  0  0  0  0  0  0  0  0  0  0  0
    7.9046   -1.3977   -3.8718 H   0  0  0  0  0  0  0  0  0  0  0  0
    8.6666   -0.5624   -5.2675 H   0  0  0  0  0  0  0  0  0  0  0  0
    7.3126    0.2194   -4.3831 H   0  0  0  0  0  0  0  0  0  0  0  0
    6.3753   -3.2260   -4.6069 H   0  0  0  0  0  0  0  0  0  0  0  0
    4.7687   -3.6750   -6.6435 H   0  0  0  0  0  0  0  0  0  0  0  0
    2.9930   -1.2175  -10.6749 H   0  0  0  0  0  0  0  0  0  0  0  0
    2.3048   -2.8755  -10.6090 H   0  0  0  0  0  0  0  0  0  0  0  0
    5.0532   -2.1336  -11.6987 H   0  0  0  0  0  0  0  0  0  0  0  0
    2.2848   -2.4294  -13.0883 H   0  0  0  0  0  0  0  0  0  0  0  0
    3.6372   -1.3216  -13.5015 H   0  0  0  0  0  0  0  0  0  0  0  0
    3.0161   -3.5124  -14.7175 H   0  0  0  0  0  0  0  0  0  0  0  0
    4.6480   -2.7684  -14.6178 H   0  0  0  0  0  0  0  0  0  0  0  0
    3.6750   -5.3046  -13.3558 H   0  0  0  0  0  0  0  0  0  0  0  0
    5.3606   -4.6999  -13.4950 H   0  0  0  0  0  0  0  0  0  0  0  0
    3.9460   -3.4508   -8.9099 H   0  0  0  0  0  0  0  0  0  0  0  0
  1 11  1  0
  1 16  1  1
  1 17  1  0
  1 18  1  0
  2  3  2  0
  2 11  1  0
  2 19  1  0
  3  4  1  0
  3 20  1  0
  4  5  1  0
  4 13  2  0
  5 12  1  0
  5 14  2  0
  6  7  1  0
  6 12  1  0
  6 21  1  6
  6 22  1  0
  7  8  1  0
  7 15  1  0
  7 23  1  1
  8  9  1  0
  8 24  1  1
  8 25  1  0
  9 10  1  0
  9 26  1  6
  9 27  1  0
 10 15  1  0
 10 28  1  1
 10 29  1  0
 11 13  1  0
 12 30  1  0
M  END
$$$$
