LIG(A-305)
     RDKit          3D

 28 29  0  0  0  0  0  0  0  0999 V2000
    9.0685    0.8804   20.9631 O   0  0  0  0  0  0  0  0  0  0  0  0
    8.4906   -0.1226   21.3591 C   0  0  0  0  0  0  0  0  0  0  0  0
    8.9877   -0.9265   22.5441 C   0  0  1  0  0  0  0  0  0  0  0  0
   10.4597   -0.6954   22.7891 C   0  0  0  0  0  0  0  0  0  0  0  0
   10.8977    0.1976   23.7590 C   0  0  0  0  0  0  0  0  0  0  0  0
   12.2436    0.4977   23.8890 C   0  0  0  0  0  0  0  0  0  0  0  0
   13.1787   -0.1003   23.0590 C   0  0  0  0  0  0  0  0  0  0  0  0
   11.4017   -1.3154   21.9771 C   0  0  0  0  0  0  0  0  0  0  0  0
   12.7387   -1.0073   22.1200 C   0  0  0  0  0  0  0  0  0  0  0  0
   13.8997   -1.8263   21.1200 Cl  0  0  0  0  0  0  0  0  0  0  0  0
    7.3586   -0.5747   20.8122 N   0  0  0  0  0  0  0  0  0  0  0  0
    6.6815    0.0462   19.7522 C   0  0  0  0  0  0  0  0  0  0  0  0
    7.2315    0.0372   18.4732 C   0  0  0  0  0  0  0  0  0  0  0  0
    6.6974    0.6912   17.4402 N   0  0  0  0  0  0  0  0  0  0  0  0
    5.5754    1.3841   17.6632 C   0  0  0  0  0  0  0  0  0  0  0  0
    4.9464    1.4451   18.8892 C   0  0  0  0  0  0  0  0  0  0  0  0
    5.5135    0.7692   19.9522 C   0  0  0  0  0  0  0  0  0  0  0  0
    8.4246   -0.6278   23.4406 H   0  0  0  0  0  0  0  0  0  0  0  0
    8.8214   -1.9958   22.3461 H   0  0  0  0  0  0  0  0  0  0  0  0
   10.1807    0.6631   24.4190 H   0  0  0  0  0  0  0  0  0  0  0  0
   12.5664    1.2018   24.6415 H   0  0  0  0  0  0  0  0  0  0  0  0
   14.2281    0.1393   23.1462 H   0  0  0  0  0  0  0  0  0  0  0  0
   11.0880   -2.0362   21.2364 H   0  0  0  0  0  0  0  0  0  0  0  0
    6.9661   -1.4155   21.1850 H   0  0  0  0  0  0  0  0  0  0  0  0
    8.1369   -0.5281   18.3087 H   0  0  0  0  0  0  0  0  0  0  0  0
    5.1377    1.9258   16.8377 H   0  0  0  0  0  0  0  0  0  0  0  0
    4.0330    2.0075   19.0151 H   0  0  0  0  0  0  0  0  0  0  0  0
    5.0529    0.8029   20.9285 H   0  0  0  0  0  0  0  0  0  0  0  0
  1  2  2  0
  2  3  1  0
  2 11  1  0
  3  4  1  0
  3 18  1  1
  3 19  1  0
  4  5  2  0
  4  8  1  0
  5  6  1  0
  5 20  1  0
  6  7  2  0
  6 21  1  0
  7  9  1  0
  7 22  1  0
  8  9  2  0
  8 23  1  0
  9 10  1  0
 11 12  1  0
 11 24  1  0
 12 13  2  0
 12 17  1  0
 13 14  1  0
 13 25  1  0
 14 15  2  0
 15 16  1  0
 15 26  1  0
 16 17  2  0
 16 27  1  0
 17 28  1  0
M  END
$$$$
