LIG(A-305)
     RDKit          3D

 34 36  0  0  0  0  0  0  0  0999 V2000
    8.9167    1.0237   20.8586 O   0  0  0  0  0  0  0  0  0  0  0  0
    8.7265   -0.1702   21.0887 C   0  0  0  0  0  0  0  0  0  0  0  0
    9.3456   -0.8493   22.0736 N   0  0  0  0  0  0  0  0  0  0  0  0
   10.1460   -0.2773   23.0804 C   0  0  0  0  0  0  0  0  0  0  0  0
    9.5493    0.1599   24.2585 C   0  0  0  0  0  0  0  0  0  0  0  0
   10.2786    0.9118   25.1623 C   0  0  0  0  0  0  0  0  0  0  0  0
   11.5996    1.2165   24.9080 C   0  0  0  0  0  0  0  0  0  0  0  0
   12.2033    0.7623   23.7539 C   0  0  0  0  0  0  0  0  0  0  0  0
   11.4860    0.0104   22.8391 C   0  0  0  0  0  0  0  0  0  0  0  0
    7.7152   -0.9881   20.3130 C   0  0  1  0  0  0  0  0  0  0  0  0
    6.7892   -0.1610   19.4531 C   0  0  0  0  0  0  0  0  0  0  0  0
    5.6694    0.5302   20.0113 C   0  0  0  0  0  0  0  0  0  0  0  0
    5.3397    0.4934   21.3924 C   0  0  0  0  0  0  0  0  0  0  0  0
    4.2699    1.1926   21.8776 C   0  0  0  0  0  0  0  0  0  0  0  0
    3.4759    1.9517   21.0307 C   0  0  0  0  0  0  0  0  0  0  0  0
    3.7546    2.0256   19.6987 C   0  0  0  0  0  0  0  0  0  0  0  0
    4.8524    1.3163   19.1515 C   0  0  0  0  0  0  0  0  0  0  0  0
    5.1951    1.3532   17.7834 C   0  0  0  0  0  0  0  0  0  0  0  0
    6.2278    0.7079   17.2632 N   0  0  0  0  0  0  0  0  0  0  0  0
    6.9869   -0.0171   18.0941 C   0  0  0  0  0  0  0  0  0  0  0  0
    9.2268   -1.8420   22.0910 H   0  0  0  0  0  0  0  0  0  0  0  0
    8.5189   -0.0871   24.4672 H   0  0  0  0  0  0  0  0  0  0  0  0
    9.8115    1.2617   26.0710 H   0  0  0  0  0  0  0  0  0  0  0  0
   12.1617    1.8112   25.6129 H   0  0  0  0  0  0  0  0  0  0  0  0
   13.2406    0.9944   23.5629 H   0  0  0  0  0  0  0  0  0  0  0  0
   11.9647   -0.3517   21.9412 H   0  0  0  0  0  0  0  0  0  0  0  0
    8.2610   -1.6865   19.6616 H   0  0  0  0  0  0  0  0  0  0  0  0
    7.1057   -1.5565   21.0309 H   0  0  0  0  0  0  0  0  0  0  0  0
    5.9424   -0.0951   22.0684 H   0  0  0  0  0  0  0  0  0  0  0  0
    4.0405    1.1535   22.9323 H   0  0  0  0  0  0  0  0  0  0  0  0
    2.6288    2.4893   21.4306 H   0  0  0  0  0  0  0  0  0  0  0  0
    3.1333    2.6300   19.0546 H   0  0  0  0  0  0  0  0  0  0  0  0
    4.5784    1.9426   17.1210 H   0  0  0  0  0  0  0  0  0  0  0  0
    7.8299   -0.5363   17.6625 H   0  0  0  0  0  0  0  0  0  0  0  0
  1  2  2  0
  2  3  1  0
  2 10  1  0
  3  4  1  0
  3 21  1  0
  4  5  2  0
  4  9  1  0
  5  6  1  0
  5 22  1  0
  6  7  2  0
  6 23  1  0
  7  8  1  0
  7 24  1  0
  8  9  2  0
  8 25  1  0
  9 26  1  0
 10 11  1  0
 10 27  1  6
 10 28  1  0
 11 12  2  0
 11 20  1  0
 12 13  1  0
 12 17  1  0
 13 14  2  0
 13 29  1  0
 14 15  1  0
 14 30  1  0
 15 16  2  0
 15 31  1  0
 16 17  1  0
 16 32  1  0
 17 18  2  0
 18 19  1  0
 18 33  1  0
 19 20  2  0
 20 34  1  0
M  END
$$$$
