LIG(A-306)
     RDKit          3D

 42 44  0  0  0  0  0  0  0  0999 V2000
   14.1045   -1.5057   21.5816 Cl  0  0  0  0  0  0  0  0  0  0  0  0
   12.8214   -0.7851   22.5167 C   0  0  0  0  0  0  0  0  0  0  0  0
   13.1247    0.2094   23.4240 C   0  0  0  0  0  0  0  0  0  0  0  0
   12.0981    0.7503   24.1831 C   0  0  0  0  0  0  0  0  0  0  0  0
   10.7916    0.3247   23.9952 C   0  0  0  0  0  0  0  0  0  0  0  0
   11.5277   -1.2321   22.3306 C   0  0  0  0  0  0  0  0  0  0  0  0
   10.4890   -0.6536   23.0545 C   0  0  0  0  0  0  0  0  0  0  0  0
    9.0525   -1.0003   22.7318 C   0  0  1  0  0  0  0  0  0  0  0  0
    8.5055   -0.1600   21.5934 C   0  0  0  0  0  0  0  0  0  0  0  0
    9.0641    0.8737   21.2201 O   0  0  0  0  0  0  0  0  0  0  0  0
    7.3681   -0.6361   21.0368 N   0  0  0  0  0  0  0  0  0  0  0  0
    6.6445   -0.0908   19.9545 C   0  0  0  0  0  0  0  0  0  0  0  0
    7.0504   -0.1929   18.6256 C   0  0  0  0  0  0  0  0  0  0  0  0
    6.4236    0.3745   17.5848 N   0  0  0  0  0  0  0  0  0  0  0  0
    5.3400    1.0941   17.8419 C   0  0  0  0  0  0  0  0  0  0  0  0
    5.4696    0.6776   20.2322 C   0  0  0  0  0  0  0  0  0  0  0  0
    4.8061    1.2971   19.1385 C   0  0  0  0  0  0  0  0  0  0  0  0
    3.6634    2.0912   19.3889 C   0  0  0  0  0  0  0  0  0  0  0  0
    3.1854    2.2586   20.6541 C   0  0  0  0  0  0  0  0  0  0  0  0
    4.9471    0.8713   21.5352 C   0  0  0  0  0  0  0  0  0  0  0  0
    3.8033    1.6507   21.7629 C   0  0  0  0  0  0  0  0  0  0  0  0
    3.2753    1.7892   23.0353 N   0  0  0  0  0  0  0  0  0  0  0  0
    3.7868    1.0141   24.1586 C   0  0  1  0  0  0  0  0  0  0  0  0
    2.4064    2.9114   23.3729 C   0  0  1  0  0  0  0  0  0  0  0  0
   14.1399    0.5588   23.5404 H   0  0  0  0  0  0  0  0  0  0  0  0
   12.3168    1.5058   24.9232 H   0  0  0  0  0  0  0  0  0  0  0  0
    9.9992    0.7585   24.5871 H   0  0  0  0  0  0  0  0  0  0  0  0
   11.3233   -2.0260   21.6275 H   0  0  0  0  0  0  0  0  0  0  0  0
    8.9989   -2.0614   22.4472 H   0  0  0  0  0  0  0  0  0  0  0  0
    8.4365   -0.8291   23.6270 H   0  0  0  0  0  0  0  0  0  0  0  0
    6.9964   -1.4726   21.4395 H   0  0  0  0  0  0  0  0  0  0  0  0
    7.9373   -0.7732   18.4179 H   0  0  0  0  0  0  0  0  0  0  0  0
    4.8310    1.5557   17.0086 H   0  0  0  0  0  0  0  0  0  0  0  0
    3.1609    2.5734   18.5635 H   0  0  0  0  0  0  0  0  0  0  0  0
    2.3109    2.8729   20.8097 H   0  0  0  0  0  0  0  0  0  0  0  0
    5.4426    0.4066   22.3748 H   0  0  0  0  0  0  0  0  0  0  0  0
    3.2301    1.2771   25.0701 H   0  0  0  0  0  0  0  0  0  0  0  0
    3.6629   -0.0589   23.9502 H   0  0  0  0  0  0  0  0  0  0  0  0
    4.8540    1.2387   24.3031 H   0  0  0  0  0  0  0  0  0  0  0  0
    2.0986    2.8337   24.4260 H   0  0  0  0  0  0  0  0  0  0  0  0
    2.9499    3.8552   23.2186 H   0  0  0  0  0  0  0  0  0  0  0  0
    1.5153    2.8919   22.7282 H   0  0  0  0  0  0  0  0  0  0  0  0
  1  2  1  0
  2  3  2  0
  2  6  1  0
  3  4  1  0
  3 25  1  0
  4  5  2  0
  4 26  1  0
  5  7  1  0
  5 27  1  0
  6  7  2  0
  6 28  1  0
  7  8  1  0
  8  9  1  0
  8 29  1  6
  8 30  1  0
  9 10  2  0
  9 11  1  0
 11 12  1  0
 11 31  1  0
 12 13  2  0
 12 16  1  0
 13 14  1  0
 13 32  1  0
 14 15  2  0
 15 17  1  0
 15 33  1  0
 16 17  2  0
 16 20  1  0
 17 18  1  0
 18 19  2  0
 18 34  1  0
 19 21  1  0
 19 35  1  0
 20 21  2  0
 20 36  1  0
 21 22  1  0
 22 23  1  0
 22 24  1  0
 23 37  1  1
 23 38  1  0
 23 39  1  0
 24 40  1  1
 24 41  1  0
 24 42  1  0
M  END
$$$$
