LIG(A-305)
     RDKit          3D

 36 37  0  0  1  0  0  0  0  0999 V2000
    7.0087   -2.5878   20.8485 N   0  0  0  0  0  0  0  0  0  0  0  0
    7.2725   -2.5498   18.3995 C   0  0  1  0  0  0  0  0  0  0  0  0
    5.9816   -4.1508   19.6106 O   0  0  0  0  0  0  0  0  0  0  0  0
    6.6826   -3.1428   19.6646 C   0  0  0  0  0  0  0  0  0  0  0  0
    6.7459   -3.2428   22.1215 C   0  0  1  0  0  0  0  0  0  0  0  0
    7.7278   -1.3348   21.0544 C   0  0  1  0  0  0  0  0  0  0  0  0
    9.0449   -1.6399   21.7243 C   0  0  1  0  0  0  0  0  0  0  0  0
   10.1550   -2.6879   23.5832 C   0  0  1  0  0  0  0  0  0  0  0  0
   11.1241   -1.5529   23.6240 C   0  0  2  0  0  0  0  0  0  0  0  0
   12.2150   -1.3089   22.7809 C   0  0  1  0  0  0  0  0  0  0  0  0
   12.9051   -0.1310   23.1628 C   0  0  1  0  0  0  0  0  0  0  0  0
   12.2302    0.5881   24.0859 C   0  0  1  0  0  0  0  0  0  0  0  0
    8.0619   -3.5458   22.7964 C   0  0  1  0  0  0  0  0  0  0  0  0
    8.8510   -2.3269   23.0043 N   0  0  2  0  0  0  0  0  0  0  0  0
   10.9972   -0.3249   24.8171 S   0  0  0  0  0  0  0  0  0  0  0  0
    6.9662   -3.1544   17.5331 H   0  0  0  0  0  0  0  0  0  0  0  0
    6.9094   -1.5191   18.2739 H   0  0  0  0  0  0  0  0  0  0  0  0
    8.3700   -2.5456   18.4739 H   0  0  0  0  0  0  0  0  0  0  0  0
    6.1469   -2.5786   22.7618 H   0  0  0  0  0  0  0  0  0  0  0  0
    6.1954   -4.1793   21.9483 H   0  0  0  0  0  0  0  0  0  0  0  0
    7.9092   -0.8481   20.0848 H   0  0  0  0  0  0  0  0  0  0  0  0
    7.1326   -0.6669   21.6944 H   0  0  0  0  0  0  0  0  0  0  0  0
    9.6427   -2.2822   21.0610 H   0  0  0  0  0  0  0  0  0  0  0  0
    9.5818   -0.6966   21.9028 H   0  0  0  0  0  0  0  0  0  0  0  0
   10.5919   -3.4969   22.9793 H   0  0  0  0  0  0  0  0  0  0  0  0
    9.9929   -3.0443   24.6111 H   0  0  0  0  0  0  0  0  0  0  0  0
   10.4738   -0.9713   22.9540 H   0  0  0  0  0  0  0  0  0  0  0  0
   12.9066   -2.1628   22.8330 H   0  0  0  0  0  0  0  0  0  0  0  0
   11.8521   -1.1934   21.7490 H   0  0  0  0  0  0  0  0  0  0  0  0
   13.8818   -0.4146   23.5818 H   0  0  0  0  0  0  0  0  0  0  0  0
   13.0564    0.4941   22.2704 H   0  0  0  0  0  0  0  0  0  0  0  0
   12.9345    0.9218   24.8621 H   0  0  0  0  0  0  0  0  0  0  0  0
   11.7815    1.4650   23.5963 H   0  0  0  0  0  0  0  0  0  0  0  0
    7.8642   -4.0147   23.7716 H   0  0  0  0  0  0  0  0  0  0  0  0
    8.6359   -4.2403   22.1653 H   0  0  0  0  0  0  0  0  0  0  0  0
    8.3657   -1.7217   23.6354 H   0  0  0  0  0  0  0  0  0  0  0  0
  1  4  1  0
  1  5  1  0
  1  6  1  0
  2  4  1  0
  2 16  1  6
  2 17  1  0
  2 18  1  0
  3  4  2  0
  5 13  1  0
  5 19  1  1
  5 20  1  0
  6  7  1  0
  6 21  1  6
  6 22  1  0
  7 14  1  0
  7 23  1  6
  7 24  1  0
  8  9  1  0
  8 14  1  0
  8 25  1  6
  8 26  1  0
  9 10  1  0
  9 15  1  0
  9 27  1  6
 10 11  1  0
 10 28  1  6
 10 29  1  0
 11 12  1  0
 11 30  1  1
 11 31  1  0
 12 15  1  0
 12 32  1  1
 12 33  1  0
 13 14  1  0
 13 34  1  1
 13 35  1  0
 14 36  1  1
M  CHG  1  14   1
M  END
$$$$
