LIG(A-306)
     RDKit          3D

 51 54  0  0  1  0  0  0  0  0999 V2000
    6.0919    2.7986   24.6589 O   0  0  0  0  0  0  0  0  0  0  0  0
    4.7934    2.2020   24.7462 S   0  0  1  0  0  0  0  0  0  0  0  0
    4.6900    0.7909   24.9376 O   0  0  0  0  0  0  0  0  0  0  0  0
    3.9057    3.0013   26.0330 C   0  0  1  0  0  0  0  0  0  0  0  0
    4.0083    2.5507   23.3609 N   0  0  0  0  0  0  0  0  0  0  0  0
    4.3711    2.1059   22.0468 C   0  0  0  0  0  0  0  0  0  0  0  0
    3.5909    2.5057   20.9623 C   0  0  0  0  0  0  0  0  0  0  0  0
    3.9146    2.1380   19.6906 C   0  0  0  0  0  0  0  0  0  0  0  0
    5.4811    1.3092   21.8359 C   0  0  0  0  0  0  0  0  0  0  0  0
    5.8508    0.8974   20.5306 C   0  0  0  0  0  0  0  0  0  0  0  0
    5.0505    1.3301   19.4328 C   0  0  0  0  0  0  0  0  0  0  0  0
    5.4472    0.9444   18.1293 C   0  0  0  0  0  0  0  0  0  0  0  0
    6.5200    0.2113   17.8630 N   0  0  0  0  0  0  0  0  0  0  0  0
    7.2652   -0.1940   18.9016 C   0  0  0  0  0  0  0  0  0  0  0  0
    7.0048    0.0963   20.2407 C   0  0  0  0  0  0  0  0  0  0  0  0
    7.8291   -0.3295   21.3094 N   0  0  0  0  0  0  0  0  0  0  0  0
    8.9697    0.2434   21.7644 C   0  0  0  0  0  0  0  0  0  0  0  0
    9.4711    1.2505   21.2816 O   0  0  0  0  0  0  0  0  0  0  0  0
    9.6177   -0.4526   23.0100 C   0  0  1  0  0  0  0  0  0  0  0  0
    9.3451   -1.8330   22.7652 O   0  0  0  0  0  0  0  0  0  0  0  0
    9.7757   -2.7673   23.7654 C   0  0  1  0  0  0  0  0  0  0  0  0
   11.1121   -0.2176   23.0481 C   0  0  0  0  0  0  0  0  0  0  0  0
   11.9495   -0.8507   22.1342 C   0  0  0  0  0  0  0  0  0  0  0  0
   13.2867   -0.5146   22.0937 C   0  0  0  0  0  0  0  0  0  0  0  0
   14.3236   -1.3545   20.9711 Cl  0  0  0  0  0  0  0  0  0  0  0  0
   13.8244    0.4553   22.9121 C   0  0  0  0  0  0  0  0  0  0  0  0
   13.0050    1.0924   23.8330 C   0  0  0  0  0  0  0  0  0  0  0  0
   11.6629    0.7445   23.9036 C   0  0  0  0  0  0  0  0  0  0  0  0
   10.9426    1.3544   24.9017 O   0  0  0  0  0  0  0  0  0  0  0  0
    9.5183    1.4411   24.6534 C   0  0  1  0  0  0  0  0  0  0  0  0
    8.9256    0.1010   24.2634 C   0  0  2  0  0  0  0  0  0  0  0  0
    2.9027    2.5576   26.1178 H   0  0  0  0  0  0  0  0  0  0  0  0
    4.4443    2.8742   26.9837 H   0  0  0  0  0  0  0  0  0  0  0  0
    3.8140    4.0733   25.8040 H   0  0  0  0  0  0  0  0  0  0  0  0
    3.0204    2.6457   23.4837 H   0  0  0  0  0  0  0  0  0  0  0  0
    2.7165    3.1162   21.1328 H   0  0  0  0  0  0  0  0  0  0  0  0
    3.2971    2.4667   18.8678 H   0  0  0  0  0  0  0  0  0  0  0  0
    6.0769    0.9950   22.6801 H   0  0  0  0  0  0  0  0  0  0  0  0
    4.8373    1.2678   17.2988 H   0  0  0  0  0  0  0  0  0  0  0  0
    8.1370   -0.7931   18.6836 H   0  0  0  0  0  0  0  0  0  0  0  0
    7.5329   -1.1558   21.7884 H   0  0  0  0  0  0  0  0  0  0  0  0
    9.5059   -3.7875   23.4552 H   0  0  0  0  0  0  0  0  0  0  0  0
   10.8667   -2.6974   23.8867 H   0  0  0  0  0  0  0  0  0  0  0  0
    9.2847   -2.5330   24.7215 H   0  0  0  0  0  0  0  0  0  0  0  0
   11.5556   -1.5989   21.4622 H   0  0  0  0  0  0  0  0  0  0  0  0
   14.8699    0.7159   22.8377 H   0  0  0  0  0  0  0  0  0  0  0  0
   13.4072    1.8511   24.4881 H   0  0  0  0  0  0  0  0  0  0  0  0
    9.0198    1.7973   25.5670 H   0  0  0  0  0  0  0  0  0  0  0  0
    9.3434    2.1576   23.8372 H   0  0  0  0  0  0  0  0  0  0  0  0
    9.0593   -0.6085   25.0932 H   0  0  0  0  0  0  0  0  0  0  0  0
    7.8523    0.2267   24.0579 H   0  0  0  0  0  0  0  0  0  0  0  0
  1  2  2  0
  2  3  2  0
  2  4  1  0
  2  5  1  6
  4 32  1  1
  4 33  1  0
  4 34  1  0
  5  6  1  0
  5 35  1  0
  6  7  2  0
  6  9  1  0
  7  8  1  0
  7 36  1  0
  8 11  2  0
  8 37  1  0
  9 10  2  0
  9 38  1  0
 10 11  1  0
 10 15  1  0
 11 12  1  0
 12 13  2  0
 12 39  1  0
 13 14  1  0
 14 15  2  0
 14 40  1  0
 15 16  1  0
 16 17  1  0
 16 41  1  0
 17 18  2  0
 17 19  1  0
 19 20  1  6
 19 22  1  0
 19 31  1  0
 20 21  1  0
 21 42  1  6
 21 43  1  0
 21 44  1  0
 22 23  2  0
 22 28  1  0
 23 24  1  0
 23 45  1  0
 24 25  1  0
 24 26  2  0
 26 27  1  0
 26 46  1  0
 27 28  2  0
 27 47  1  0
 28 29  1  0
 29 30  1  0
 30 31  1  0
 30 48  1  1
 30 49  1  0
 31 50  1  1
 31 51  1  0
M  END
$$$$
