LIG(A-305)
     RDKit          3D

 28 28  0  0  1  0  0  0  0  0999 V2000
    9.7333    0.9633   21.2340 O   0  0  0  0  0  0  0  0  0  0  0  0
    9.3373   -0.1837   21.4330 C   0  0  0  0  0  0  0  0  0  0  0  0
   10.1793   -1.1656   22.2450 C   0  0  1  0  0  0  0  0  0  0  0  0
   11.5163   -0.6596   22.4320 O   0  0  0  0  0  0  0  0  0  0  0  0
   12.4653   -1.1416   21.5810 C   0  0  2  0  0  0  0  0  0  0  0  0
   13.0683   -2.1686   22.1870 F   0  0  0  0  0  0  0  0  0  0  0  0
   13.4373   -0.2156   21.4910 F   0  0  0  0  0  0  0  0  0  0  0  0
    9.6224   -1.3836   23.6361 C   0  0  1  0  0  0  0  0  0  0  0  0
    8.1793   -0.6897   20.9371 N   0  0  0  0  0  0  0  0  0  0  0  0
    7.2853   -0.0817   20.0201 C   0  0  0  0  0  0  0  0  0  0  0  0
    6.1073    0.5323   20.4861 C   0  0  0  0  0  0  0  0  0  0  0  0
    5.8463    0.7483   21.9551 C   0  0  1  0  0  0  0  0  0  0  0  0
    5.2203    1.0212   19.5331 C   0  0  0  0  0  0  0  0  0  0  0  0
    5.5362    0.9262   18.1921 C   0  0  0  0  0  0  0  0  0  0  0  0
    6.6692    0.3842   17.7361 N   0  0  0  0  0  0  0  0  0  0  0  0
    7.5183   -0.1147   18.6441 C   0  0  0  0  0  0  0  0  0  0  0  0
   10.2114   -2.1294   21.7159 H   0  0  0  0  0  0  0  0  0  0  0  0
   12.0474   -1.4122   20.6001 H   0  0  0  0  0  0  0  0  0  0  0  0
   10.2607   -2.0957   24.1798 H   0  0  0  0  0  0  0  0  0  0  0  0
    9.5995   -0.4255   24.1760 H   0  0  0  0  0  0  0  0  0  0  0  0
    8.6020   -1.7878   23.5631 H   0  0  0  0  0  0  0  0  0  0  0  0
    7.9261   -1.6025   21.2576 H   0  0  0  0  0  0  0  0  0  0  0  0
    6.6380    1.3834   22.3791 H   0  0  0  0  0  0  0  0  0  0  0  0
    4.8717    1.2413   22.0856 H   0  0  0  0  0  0  0  0  0  0  0  0
    5.8385   -0.2224   22.4726 H   0  0  0  0  0  0  0  0  0  0  0  0
    4.2887    1.4731   19.8403 H   0  0  0  0  0  0  0  0  0  0  0  0
    4.8288    1.3111   17.4725 H   0  0  0  0  0  0  0  0  0  0  0  0
    8.4335   -0.5675   18.2923 H   0  0  0  0  0  0  0  0  0  0  0  0
  1  2  2  0
  2  3  1  0
  2  9  1  0
  3  4  1  0
  3  8  1  0
  3 17  1  6
  4  5  1  0
  5  6  1  0
  5  7  1  0
  5 18  1  6
  8 19  1  1
  8 20  1  0
  8 21  1  0
  9 10  1  0
  9 22  1  0
 10 11  2  0
 10 16  1  0
 11 12  1  0
 11 13  1  0
 12 23  1  1
 12 24  1  0
 12 25  1  0
 13 14  2  0
 13 26  1  0
 14 15  1  0
 14 27  1  0
 15 16  2  0
 16 28  1  0
M  END
$$$$
