LIG(A-305)
     RDKit          3D

 34 36  0  0  0  0  0  0  0  0999 V2000
    8.9183    0.7524   21.0262 O   0  0  0  0  0  0  0  0  0  0  0  0
    8.3894   -0.3246   21.3072 C   0  0  0  0  0  0  0  0  0  0  0  0
    8.8825   -1.1906   22.4512 C   0  0  1  0  0  0  0  0  0  0  0  0
   10.3235   -0.8945   22.7911 C   0  0  0  0  0  0  0  0  0  0  0  0
   10.6575    0.0714   23.7351 C   0  0  0  0  0  0  0  0  0  0  0  0
   11.9795    0.4595   23.9150 C   0  0  0  0  0  0  0  0  0  0  0  0
   12.9855   -0.1204   23.1529 C   0  0  0  0  0  0  0  0  0  0  0  0
   11.3375   -1.5055   22.0650 C   0  0  0  0  0  0  0  0  0  0  0  0
   12.6415   -1.1004   22.2389 C   0  0  0  0  0  0  0  0  0  0  0  0
   13.8854   -1.8493   21.2738 Cl  0  0  0  0  0  0  0  0  0  0  0  0
    7.2833   -0.7866   20.6973 N   0  0  0  0  0  0  0  0  0  0  0  0
    6.5502   -0.1437   19.6824 C   0  0  0  0  0  0  0  0  0  0  0  0
    5.4342    0.6743   20.0385 C   0  0  0  0  0  0  0  0  0  0  0  0
    4.9513    0.8242   21.3665 C   0  0  0  0  0  0  0  0  0  0  0  0
    3.8493    1.5932   21.6327 C   0  0  0  0  0  0  0  0  0  0  0  0
    3.1912    2.2651   20.6107 C   0  0  0  0  0  0  0  0  0  0  0  0
    3.6371    2.1762   19.3207 C   0  0  0  0  0  0  0  0  0  0  0  0
    4.7671    1.3773   19.0016 C   0  0  0  0  0  0  0  0  0  0  0  0
    5.2770    1.2443   17.6885 C   0  0  0  0  0  0  0  0  0  0  0  0
    6.3240    0.4904   17.3654 N   0  0  0  0  0  0  0  0  0  0  0  0
    6.9291   -0.1856   18.3474 C   0  0  0  0  0  0  0  0  0  0  0  0
    8.2601   -0.9994   23.3377 H   0  0  0  0  0  0  0  0  0  0  0  0
    8.7939   -2.2483   22.1622 H   0  0  0  0  0  0  0  0  0  0  0  0
    9.8814    0.5243   24.3341 H   0  0  0  0  0  0  0  0  0  0  0  0
   12.2252    1.2132   24.6485 H   0  0  0  0  0  0  0  0  0  0  0  0
   14.0140    0.1870   23.2712 H   0  0  0  0  0  0  0  0  0  0  0  0
   11.1038   -2.2954   21.3665 H   0  0  0  0  0  0  0  0  0  0  0  0
    6.9469   -1.6798   20.9959 H   0  0  0  0  0  0  0  0  0  0  0  0
    5.4604    0.3248   22.1776 H   0  0  0  0  0  0  0  0  0  0  0  0
    3.4887    1.6777   22.6472 H   0  0  0  0  0  0  0  0  0  0  0  0
    2.3204    2.8627   20.8365 H   0  0  0  0  0  0  0  0  0  0  0  0
    3.1258    2.7178   18.5385 H   0  0  0  0  0  0  0  0  0  0  0  0
    4.7843    1.7902   16.8976 H   0  0  0  0  0  0  0  0  0  0  0  0
    7.7715   -0.8079   18.0837 H   0  0  0  0  0  0  0  0  0  0  0  0
  1  2  2  0
  2  3  1  0
  2 11  1  0
  3  4  1  0
  3 22  1  1
  3 23  1  0
  4  5  2  0
  4  8  1  0
  5  6  1  0
  5 24  1  0
  6  7  2  0
  6 25  1  0
  7  9  1  0
  7 26  1  0
  8  9  2  0
  8 27  1  0
  9 10  1  0
 11 12  1  0
 11 28  1  0
 12 13  2  0
 12 21  1  0
 13 14  1  0
 13 18  1  0
 14 15  2  0
 14 29  1  0
 15 16  1  0
 15 30  1  0
 16 17  2  0
 16 31  1  0
 17 18  1  0
 17 32  1  0
 18 19  2  0
 19 20  1  0
 19 33  1  0
 20 21  2  0
 21 34  1  0
M  END
$$$$
