LIG(A-306)
     RDKit          3D

 42 45  0  0  0  0  0  0  0  0999 V2000
   -5.9731   -3.1370  -20.8967 O   0  0  0  0  0  0  0  0  0  0  0  0
   -6.5395   -2.0627  -20.8773 C   0  0  0  0  0  0  0  0  0  0  0  0
   -6.1457   -1.0271  -19.8662 C   0  0  0  0  0  0  0  0  0  0  0  0
   -5.2815    0.0510  -20.2026 C   0  0  0  0  0  0  0  0  0  0  0  0
   -4.6817    0.2279  -21.4798 C   0  0  0  0  0  0  0  0  0  0  0  0
   -3.8305    1.2697  -21.7192 C   0  0  0  0  0  0  0  0  0  0  0  0
   -3.5330    2.1846  -20.7185 C   0  0  0  0  0  0  0  0  0  0  0  0
   -4.0917    2.0647  -19.4752 C   0  0  0  0  0  0  0  0  0  0  0  0
   -4.9780    0.9978  -19.1827 C   0  0  0  0  0  0  0  0  0  0  0  0
   -5.5558    0.7948  -17.9037 C   0  0  0  0  0  0  0  0  0  0  0  0
   -6.3639   -0.2143  -17.5961 N   0  0  0  0  0  0  0  0  0  0  0  0
   -6.6492   -1.0933  -18.5688 C   0  0  0  0  0  0  0  0  0  0  0  0
   -7.5158   -1.7463  -21.7500 N   0  0  0  0  0  0  0  0  0  0  0  0
   -8.1173   -2.6946  -22.6965 C   0  0  1  0  0  0  0  0  0  0  0  0
   -9.6291   -2.7396  -22.5048 C   0  0  1  0  0  0  0  0  0  0  0  0
   -8.0597   -0.3976  -21.8547 C   0  0  1  0  0  0  0  0  0  0  0  0
   -9.5615   -0.3331  -21.8216 C   0  0  0  0  0  0  0  0  0  0  0  0
  -10.1135    0.6495  -21.3355 O   0  0  0  0  0  0  0  0  0  0  0  0
  -10.2327   -1.4028  -22.3344 N   0  0  0  0  0  0  0  0  0  0  0  0
  -11.6119   -1.3143  -22.6774 C   0  0  0  0  0  0  0  0  0  0  0  0
  -12.5210   -2.1214  -22.0030 C   0  0  0  0  0  0  0  0  0  0  0  0
  -13.8698   -1.9065  -22.1936 C   0  0  0  0  0  0  0  0  0  0  0  0
  -14.9933   -2.6934  -21.1279 Cl  0  0  0  0  0  0  0  0  0  0  0  0
  -12.0638   -0.3620  -23.5936 C   0  0  0  0  0  0  0  0  0  0  0  0
  -13.4257   -0.2060  -23.8063 C   0  0  0  0  0  0  0  0  0  0  0  0
  -14.3407   -0.9762  -23.1008 C   0  0  0  0  0  0  0  0  0  0  0  0
   -4.9023   -0.4716  -22.2724 H   0  0  0  0  0  0  0  0  0  0  0  0
   -3.3848    1.3824  -22.6965 H   0  0  0  0  0  0  0  0  0  0  0  0
   -2.8539    2.9991  -20.9232 H   0  0  0  0  0  0  0  0  0  0  0  0
   -3.8554    2.7893  -18.7100 H   0  0  0  0  0  0  0  0  0  0  0  0
   -5.3235    1.5086  -17.1271 H   0  0  0  0  0  0  0  0  0  0  0  0
   -7.3155   -1.9088  -18.3295 H   0  0  0  0  0  0  0  0  0  0  0  0
   -7.8904   -2.3758  -23.7245 H   0  0  0  0  0  0  0  0  0  0  0  0
   -7.6987   -3.6968  -22.5226 H   0  0  0  0  0  0  0  0  0  0  0  0
  -10.0797   -3.2170  -23.3874 H   0  0  0  0  0  0  0  0  0  0  0  0
   -9.8506   -3.3401  -21.6100 H   0  0  0  0  0  0  0  0  0  0  0  0
   -7.6705    0.1972  -21.0152 H   0  0  0  0  0  0  0  0  0  0  0  0
   -7.7167    0.0397  -22.8039 H   0  0  0  0  0  0  0  0  0  0  0  0
  -12.1771   -2.9028  -21.3416 H   0  0  0  0  0  0  0  0  0  0  0  0
  -11.3565    0.2498  -24.1338 H   0  0  0  0  0  0  0  0  0  0  0  0
  -13.7767    0.5193  -24.5254 H   0  0  0  0  0  0  0  0  0  0  0  0
  -15.4017   -0.8505  -23.2583 H   0  0  0  0  0  0  0  0  0  0  0  0
  1  2  2  0
  2  3  1  0
  2 13  1  0
  3  4  2  0
  3 12  1  0
  4  5  1  0
  4  9  1  0
  5  6  2  0
  5 27  1  0
  6  7  1  0
  6 28  1  0
  7  8  2  0
  7 29  1  0
  8  9  1  0
  8 30  1  0
  9 10  2  0
 10 11  1  0
 10 31  1  0
 11 12  2  0
 12 32  1  0
 13 14  1  0
 13 16  1  0
 14 15  1  0
 14 33  1  6
 14 34  1  0
 15 19  1  0
 15 35  1  6
 15 36  1  0
 16 17  1  0
 16 37  1  1
 16 38  1  0
 17 18  2  0
 17 19  1  0
 19 20  1  0
 20 21  2  0
 20 24  1  0
 21 22  1  0
 21 39  1  0
 22 23  1  0
 22 26  2  0
 24 25  2  0
 24 40  1  0
 25 26  1  0
 25 41  1  0
 26 42  1  0
M  END
$$$$
