LIG(A-306)
     RDKit          3D

 67 70  0  0  1  0  0  0  0  0999 V2000
   -5.8089   -2.3758  -21.2857 O   0  0  0  0  0  0  0  0  0  0  0  0
   -6.9599   -2.6047  -21.6159 C   0  0  0  0  0  0  0  0  0  0  0  0
   -7.2799   -4.0247  -21.9724 C   0  0  0  0  0  0  0  0  0  0  0  0
   -8.3470   -4.4415  -22.7144 O   0  0  0  0  0  0  0  0  0  0  0  0
   -8.1936   -5.8053  -22.8733 C   0  0  0  0  0  0  0  0  0  0  0  0
   -7.0949   -6.2272  -22.2672 C   0  0  0  0  0  0  0  0  0  0  0  0
   -6.4912   -5.0847  -21.6751 C   0  0  0  0  0  0  0  0  0  0  0  0
   -7.8996   -1.6349  -21.7354 N   0  0  0  0  0  0  0  0  0  0  0  0
   -9.2069   -1.8457  -22.3013 C   0  0  0  0  0  0  0  0  0  0  0  0
   -9.3965   -1.7565  -23.6778 C   0  0  0  0  0  0  0  0  0  0  0  0
  -10.6675   -1.8614  -24.2135 C   0  0  0  0  0  0  0  0  0  0  0  0
  -10.3093   -2.0637  -21.4776 C   0  0  0  0  0  0  0  0  0  0  0  0
  -11.5774   -2.1776  -22.0273 C   0  0  0  0  0  0  0  0  0  0  0  0
  -11.7770   -2.0864  -23.4048 C   0  0  0  0  0  0  0  0  0  0  0  0
  -13.1573   -2.2727  -24.0516 C   0  0  2  0  0  0  0  0  0  0  0  0
  -13.1316   -3.4936  -24.9778 C   0  0  1  0  0  0  0  0  0  0  0  0
  -13.5103   -1.0359  -24.8909 C   0  0  1  0  0  0  0  0  0  0  0  0
  -14.2845   -2.4814  -23.0218 C   0  0  1  0  0  0  0  0  0  0  0  0
   -7.4877   -0.2329  -21.4711 C   0  0  2  0  0  0  0  0  0  0  0  0
   -6.8144   -0.0452  -20.1203 C   0  0  0  0  0  0  0  0  0  0  0  0
   -7.3990   -0.4858  -18.9391 C   0  0  0  0  0  0  0  0  0  0  0  0
   -6.9814   -0.1350  -17.7144 N   0  0  0  0  0  0  0  0  0  0  0  0
   -5.9163    0.6700  -17.6381 C   0  0  0  0  0  0  0  0  0  0  0  0
   -5.2426    1.1421  -18.7473 C   0  0  0  0  0  0  0  0  0  0  0  0
   -5.7002    0.7706  -19.9980 C   0  0  0  0  0  0  0  0  0  0  0  0
   -8.6124    0.7937  -21.6781 C   0  0  0  0  0  0  0  0  0  0  0  0
   -9.5029    0.9261  -20.8474 O   0  0  0  0  0  0  0  0  0  0  0  0
   -8.5120    1.5332  -22.7817 N   0  0  0  0  0  0  0  0  0  0  0  0
   -9.5109    2.5380  -23.1279 C   0  0  1  0  0  0  0  0  0  0  0  0
  -10.8570    1.8986  -23.4733 C   0  0  1  0  0  0  0  0  0  0  0  0
  -11.9906    2.8957  -23.5384 C   0  0  0  0  0  0  0  0  0  0  0  0
  -12.7433    3.1767  -22.4024 C   0  0  0  0  0  0  0  0  0  0  0  0
  -13.7461    4.1125  -22.4829 C   0  0  0  0  0  0  0  0  0  0  0  0
  -14.4308    4.4164  -21.3510 F   0  0  0  0  0  0  0  0  0  0  0  0
  -14.0629    4.7782  -23.6352 C   0  0  0  0  0  0  0  0  0  0  0  0
  -13.3172    4.4952  -24.7692 C   0  0  0  0  0  0  0  0  0  0  0  0
  -12.2905    3.5625  -24.7207 C   0  0  0  0  0  0  0  0  0  0  0  0
   -8.8768   -6.4405  -23.4176 H   0  0  0  0  0  0  0  0  0  0  0  0
   -6.7284   -7.2424  -22.2298 H   0  0  0  0  0  0  0  0  0  0  0  0
   -5.5783   -5.0656  -21.0984 H   0  0  0  0  0  0  0  0  0  0  0  0
   -8.5486   -1.6049  -24.3293 H   0  0  0  0  0  0  0  0  0  0  0  0
  -10.8013   -1.7668  -25.2810 H   0  0  0  0  0  0  0  0  0  0  0  0
  -10.1760   -2.1441  -20.4089 H   0  0  0  0  0  0  0  0  0  0  0  0
  -12.4248   -2.3397  -21.3778 H   0  0  0  0  0  0  0  0  0  0  0  0
  -14.1213   -3.6249  -25.4398 H   0  0  0  0  0  0  0  0  0  0  0  0
  -12.3774   -3.3415  -25.7639 H   0  0  0  0  0  0  0  0  0  0  0  0
  -12.8774   -4.3909  -24.3945 H   0  0  0  0  0  0  0  0  0  0  0  0
  -14.4995   -1.1749  -25.3516 H   0  0  0  0  0  0  0  0  0  0  0  0
  -13.5291   -0.1468  -24.2435 H   0  0  0  0  0  0  0  0  0  0  0  0
  -12.7549   -0.8998  -25.6788 H   0  0  0  0  0  0  0  0  0  0  0  0
  -15.2427   -2.6079  -23.5469 H   0  0  0  0  0  0  0  0  0  0  0  0
  -14.0727   -3.3799  -22.4237 H   0  0  0  0  0  0  0  0  0  0  0  0
  -14.3425   -1.6052  -22.3593 H   0  0  0  0  0  0  0  0  0  0  0  0
   -6.7228    0.0094  -22.2236 H   0  0  0  0  0  0  0  0  0  0  0  0
   -8.2442   -1.1540  -19.0123 H   0  0  0  0  0  0  0  0  0  0  0  0
   -5.5655    0.9657  -16.6603 H   0  0  0  0  0  0  0  0  0  0  0  0
   -4.3810    1.7846  -18.6407 H   0  0  0  0  0  0  0  0  0  0  0  0
   -5.1876    1.1172  -20.8831 H   0  0  0  0  0  0  0  0  0  0  0  0
   -7.7299    1.3956  -23.3896 H   0  0  0  0  0  0  0  0  0  0  0  0
   -9.6469    3.2158  -22.2723 H   0  0  0  0  0  0  0  0  0  0  0  0
   -9.1546    3.1109  -23.9966 H   0  0  0  0  0  0  0  0  0  0  0  0
  -10.7686    1.4053  -24.4525 H   0  0  0  0  0  0  0  0  0  0  0  0
  -11.0951    1.1483  -22.7050 H   0  0  0  0  0  0  0  0  0  0  0  0
  -12.5425    2.6670  -21.4718 H   0  0  0  0  0  0  0  0  0  0  0  0
  -14.8664    5.4995  -23.6607 H   0  0  0  0  0  0  0  0  0  0  0  0
  -13.5365    5.0039  -25.6962 H   0  0  0  0  0  0  0  0  0  0  0  0
  -11.7179    3.3523  -25.6120 H   0  0  0  0  0  0  0  0  0  0  0  0
  1  2  2  0
  2  3  1  0
  2  8  1  0
  3  4  1  0
  3  7  2  0
  4  5  1  0
  5  6  2  0
  5 38  1  0
  6  7  1  0
  6 39  1  0
  7 40  1  0
  8  9  1  0
  8 19  1  0
  9 10  2  0
  9 12  1  0
 10 11  1  0
 10 41  1  0
 11 14  2  0
 11 42  1  0
 12 13  2  0
 12 43  1  0
 13 14  1  0
 13 44  1  0
 15 14  1  1
 15 16  1  0
 15 17  1  0
 15 18  1  0
 16 45  1  6
 16 46  1  0
 16 47  1  0
 17 48  1  6
 17 49  1  0
 17 50  1  0
 18 51  1  6
 18 52  1  0
 18 53  1  0
 19 20  1  0
 19 26  1  0
 19 54  1  6
 20 21  2  0
 20 25  1  0
 21 22  1  0
 21 55  1  0
 22 23  2  0
 23 24  1  0
 23 56  1  0
 24 25  2  0
 24 57  1  0
 25 58  1  0
 26 27  2  0
 26 28  1  0
 28 29  1  0
 28 59  1  0
 29 30  1  0
 29 60  1  1
 29 61  1  0
 30 31  1  0
 30 62  1  6
 30 63  1  0
 31 32  2  0
 31 37  1  0
 32 33  1  0
 32 64  1  0
 33 34  1  0
 33 35  2  0
 35 36  1  0
 35 65  1  0
 36 37  2  0
 36 66  1  0
 37 67  1  0
M  END
$$$$
