LIG(A-305)
     RDKit          3D

 39 41  0  0  1  0  0  0  0  0999 V2000
    7.2512   -2.8593   21.2797 N   0  0  0  0  0  0  0  0  0  0  0  0
   12.4936   -0.8220   22.4144 C   0  0  0  0  0  0  0  0  0  0  0  0
    7.3116   -5.0059   24.2809 C   0  0  0  0  0  0  0  0  0  0  0  0
    8.3930   -1.9667   21.5482 C   0  0  1  0  0  0  0  0  0  0  0  0
   12.6278    0.2121   23.3339 C   0  0  0  0  0  0  0  0  0  0  0  0
   11.2725   -1.4802   22.3358 C   0  0  0  0  0  0  0  0  0  0  0  0
    6.7601   -3.2004   20.0679 C   0  0  0  0  0  0  0  0  0  0  0  0
   10.2096   -1.1405   23.1667 C   0  0  0  0  0  0  0  0  0  0  0  0
   10.3838   -0.1255   24.0971 C   0  0  0  0  0  0  0  0  0  0  0  0
    7.5332   -3.8469   23.5383 C   0  0  0  0  0  0  0  0  0  0  0  0
    9.3617   -4.6716   25.4616 C   0  0  0  0  0  0  0  0  0  0  0  0
    7.5543   -2.7845   18.8567 C   0  0  1  0  0  0  0  0  0  0  0  0
    6.5658   -3.3295   22.5050 C   0  0  2  0  0  0  0  0  0  0  0  0
    8.2214   -5.4072   25.2441 C   0  0  0  0  0  0  0  0  0  0  0  0
    9.5943   -3.5207   24.7260 C   0  0  0  0  0  0  0  0  0  0  0  0
   13.6671   -1.2741   21.5816 C   0  0  1  0  0  0  0  0  0  0  0  0
    5.6973   -3.7691   19.9483 O   0  0  0  0  0  0  0  0  0  0  0  0
    8.8465   -1.7993   23.0061 C   0  0  2  0  0  0  0  0  0  0  0  0
   11.5849    0.5538   24.1777 C   0  0  0  0  0  0  0  0  0  0  0  0
    8.6776   -3.0914   23.7688 C   0  0  0  0  0  0  0  0  0  0  0  0
    6.4239   -5.5948   24.1035 H   0  0  0  0  0  0  0  0  0  0  0  0
    9.2518   -2.3534   20.9802 H   0  0  0  0  0  0  0  0  0  0  0  0
    8.1242   -0.9685   21.1721 H   0  0  0  0  0  0  0  0  0  0  0  0
   13.5588    0.7566   23.3906 H   0  0  0  0  0  0  0  0  0  0  0  0
   11.1457   -2.2732   21.6138 H   0  0  0  0  0  0  0  0  0  0  0  0
    9.5747    0.1355   24.7632 H   0  0  0  0  0  0  0  0  0  0  0  0
   10.0765   -4.9905   26.2059 H   0  0  0  0  0  0  0  0  0  0  0  0
    7.0145   -3.0793   17.9447 H   0  0  0  0  0  0  0  0  0  0  0  0
    7.6910   -1.6930   18.8650 H   0  0  0  0  0  0  0  0  0  0  0  0
    8.5376   -3.2774   18.8762 H   0  0  0  0  0  0  0  0  0  0  0  0
    5.8715   -4.1385   22.2338 H   0  0  0  0  0  0  0  0  0  0  0  0
    6.0005   -2.4911   22.9381 H   0  0  0  0  0  0  0  0  0  0  0  0
    8.0350   -6.2986   25.8246 H   0  0  0  0  0  0  0  0  0  0  0  0
   10.4955   -2.9505   24.8963 H   0  0  0  0  0  0  0  0  0  0  0  0
   14.4744   -1.6218   22.2429 H   0  0  0  0  0  0  0  0  0  0  0  0
   13.3534   -2.0967   20.9223 H   0  0  0  0  0  0  0  0  0  0  0  0
   14.0294   -0.4333   20.9718 H   0  0  0  0  0  0  0  0  0  0  0  0
    8.1281   -1.0969   23.4540 H   0  0  0  0  0  0  0  0  0  0  0  0
   11.7095    1.3494   24.8974 H   0  0  0  0  0  0  0  0  0  0  0  0
  1  4  1  0
  1  7  1  0
  1 13  1  0
  2  5  2  0
  2  6  1  0
  2 16  1  0
  3 10  2  0
  3 14  1  0
  3 21  1  0
  4 18  1  0
  4 22  1  6
  4 23  1  0
  5 19  1  0
  5 24  1  0
  6  8  2  0
  6 25  1  0
  7 12  1  0
  7 17  2  0
  8  9  1  0
  8 18  1  0
  9 19  2  0
  9 26  1  0
 10 13  1  0
 10 20  1  0
 11 14  2  0
 11 15  1  0
 11 27  1  0
 12 28  1  6
 12 29  1  0
 12 30  1  0
 13 31  1  6
 13 32  1  0
 14 33  1  0
 15 20  2  0
 15 34  1  0
 16 35  1  1
 16 36  1  0
 16 37  1  0
 18 20  1  0
 18 38  1  1
 19 39  1  0
M  END
$$$$
