LIG(A-305)
     RDKit          3D

 37 39  0  0  1  0  0  0  0  0999 V2000
    6.4817    0.4937   17.6399 N   0  0  0  0  0  0  0  0  0  0  0  0
    5.6357    0.7959   20.2889 C   0  0  0  0  0  0  0  0  0  0  0  0
   12.4506    0.5933   24.0200 C   0  0  0  0  0  0  0  0  0  0  0  0
    9.3247    1.0660   21.3069 O   0  0  0  0  0  0  0  0  0  0  0  0
    8.3036   -0.1628   24.0890 C   0  0  1  0  0  0  0  0  0  0  0  0
    4.9457    1.3898   19.2418 C   0  0  0  0  0  0  0  0  0  0  0  0
    8.7017    0.0660   21.6430 C   0  0  0  0  0  0  0  0  0  0  0  0
    6.7867    0.0579   19.9809 C   0  0  0  0  0  0  0  0  0  0  0  0
    7.1277   -0.1042   18.6419 C   0  0  0  0  0  0  0  0  0  0  0  0
   11.0946    0.3042   23.9730 C   0  0  0  0  0  0  0  0  0  0  0  0
   12.8087   -0.9349   22.2301 C   0  0  0  0  0  0  0  0  0  0  0  0
    8.9386    1.1312   24.5279 C   0  0  1  0  0  0  0  0  0  0  0  0
   13.3117   -0.0168   23.1261 C   0  0  0  0  0  0  0  0  0  0  0  0
   11.4657   -1.2429   22.1821 C   0  0  0  0  0  0  0  0  0  0  0  0
    5.0827    0.8600   21.6918 C   0  0  1  0  0  0  0  0  0  0  0  0
    7.6977   -0.4300   20.9180 N   0  0  0  0  0  0  0  0  0  0  0  0
    5.7836    1.7860   22.5088 O   0  0  0  0  0  0  0  0  0  0  0  0
   10.3156    0.9383   24.9109 O   0  0  0  0  0  0  0  0  0  0  0  0
    9.0727   -0.7479   22.8830 C   0  0  1  0  0  0  0  0  0  0  0  0
    5.4127    1.2317   17.9518 C   0  0  0  0  0  0  0  0  0  0  0  0
   10.5747   -0.5958   23.0380 C   0  0  0  0  0  0  0  0  0  0  0  0
   13.8987   -1.7359   21.1312 Cl  0  0  0  0  0  0  0  0  0  0  0  0
   12.8319    1.2910   24.7509 H   0  0  0  0  0  0  0  0  0  0  0  0
    8.3298   -0.8819   24.9210 H   0  0  0  0  0  0  0  0  0  0  0  0
    7.2592    0.0242   23.7987 H   0  0  0  0  0  0  0  0  0  0  0  0
    4.0543    1.9687   19.4333 H   0  0  0  0  0  0  0  0  0  0  0  0
    7.9602   -0.7487   18.4010 H   0  0  0  0  0  0  0  0  0  0  0  0
    8.8957    1.8509   23.6971 H   0  0  0  0  0  0  0  0  0  0  0  0
    8.3805    1.5302   25.3878 H   0  0  0  0  0  0  0  0  0  0  0  0
   14.3646    0.2233   23.1302 H   0  0  0  0  0  0  0  0  0  0  0  0
   11.1046   -1.9832   21.4835 H   0  0  0  0  0  0  0  0  0  0  0  0
    4.0263    1.1625   21.6416 H   0  0  0  0  0  0  0  0  0  0  0  0
    5.1568   -0.1389   22.1466 H   0  0  0  0  0  0  0  0  0  0  0  0
    7.5631   -1.4056   21.0913 H   0  0  0  0  0  0  0  0  0  0  0  0
    5.6360    2.6677   22.1873 H   0  0  0  0  0  0  0  0  0  0  0  0
    8.8051   -1.8053   22.7406 H   0  0  0  0  0  0  0  0  0  0  0  0
    4.8856    1.7314   17.1525 H   0  0  0  0  0  0  0  0  0  0  0  0
  1  9  1  0
  1 20  2  0
  2  6  2  0
  2  8  1  0
  2 15  1  0
  3 10  2  0
  3 13  1  0
  3 23  1  0
  4  7  2  0
  5 12  1  0
  5 19  1  0
  5 24  1  1
  5 25  1  0
  6 20  1  0
  6 26  1  0
  7 16  1  0
  7 19  1  0
  8  9  2  0
  8 16  1  0
  9 27  1  0
 10 18  1  0
 10 21  1  0
 11 13  2  0
 11 14  1  0
 11 22  1  0
 12 18  1  0
 12 28  1  6
 12 29  1  0
 13 30  1  0
 14 21  2  0
 14 31  1  0
 15 17  1  0
 15 32  1  6
 15 33  1  0
 16 34  1  0
 17 35  1  0
 19 21  1  0
 19 36  1  6
 20 37  1  0
M  END
$$$$
