LIG(A-306)
     RDKit          3D

 41 45  0  0  1  0  0  0  0  0999 V2000
   -9.7332    1.0418  -21.0229 O   0  0  0  0  0  0  0  0  0  0  0  0
   -9.3222   -0.0217  -21.4470 C   0  0  0  0  0  0  0  0  0  0  0  0
   -9.8544   -0.7813  -22.6859 C   0  0  2  0  0  0  0  0  0  0  0  0
   -9.2693   -0.0774  -23.9312 C   0  0  1  0  0  0  0  0  0  0  0  0
  -10.3242    0.4203  -24.9043 C   0  0  1  0  0  0  0  0  0  0  0  0
  -11.4641    1.0008  -24.2500 O   0  0  0  0  0  0  0  0  0  0  0  0
  -11.3766   -0.8357  -22.6843 C   0  0  0  0  0  0  0  0  0  0  0  0
  -12.0903    0.0985  -23.4313 C   0  0  0  0  0  0  0  0  0  0  0  0
  -13.4752    0.1337  -23.4255 C   0  0  0  0  0  0  0  0  0  0  0  0
  -14.1664   -0.7822  -22.6548 C   0  0  0  0  0  0  0  0  0  0  0  0
  -12.0848   -1.7646  -21.9256 C   0  0  0  0  0  0  0  0  0  0  0  0
  -13.4656   -1.6994  -21.9007 C   0  0  0  0  0  0  0  0  0  0  0  0
  -14.3337   -2.7072  -20.7731 Cl  0  0  0  0  0  0  0  0  0  0  0  0
   -8.3474   -0.8370  -20.8689 N   0  0  0  0  0  0  0  0  0  0  0  0
   -8.3101   -2.0950  -21.4832 C   0  0  0  0  0  0  0  0  0  0  0  0
   -7.5558   -3.0098  -21.1801 O   0  0  0  0  0  0  0  0  0  0  0  0
   -9.2382   -2.0865  -22.4720 N   0  0  0  0  0  0  0  0  0  0  0  0
   -7.4411   -0.3946  -19.8304 C   0  0  0  0  0  0  0  0  0  0  0  0
   -6.3565    0.4690  -20.1728 C   0  0  0  0  0  0  0  0  0  0  0  0
   -5.9005    0.6994  -21.4986 C   0  0  0  0  0  0  0  0  0  0  0  0
   -4.8409    1.5298  -21.7460 C   0  0  0  0  0  0  0  0  0  0  0  0
   -4.1961    2.1848  -20.7036 C   0  0  0  0  0  0  0  0  0  0  0  0
   -4.6000    1.9993  -19.4107 C   0  0  0  0  0  0  0  0  0  0  0  0
   -5.6787    1.1298  -19.1084 C   0  0  0  0  0  0  0  0  0  0  0  0
   -6.1187    0.8724  -17.7837 C   0  0  0  0  0  0  0  0  0  0  0  0
   -7.1272    0.0677  -17.4762 N   0  0  0  0  0  0  0  0  0  0  0  0
   -7.7658   -0.5414  -18.4855 C   0  0  0  0  0  0  0  0  0  0  0  0
   -8.6730    0.7837  -23.5952 H   0  0  0  0  0  0  0  0  0  0  0  0
   -8.6187   -0.7902  -24.4592 H   0  0  0  0  0  0  0  0  0  0  0  0
   -9.8690    1.1812  -25.5555 H   0  0  0  0  0  0  0  0  0  0  0  0
  -10.6656   -0.4284  -25.5152 H   0  0  0  0  0  0  0  0  0  0  0  0
  -14.0071    0.8662  -24.0146 H   0  0  0  0  0  0  0  0  0  0  0  0
  -15.2464   -0.7794  -22.6434 H   0  0  0  0  0  0  0  0  0  0  0  0
  -11.5625   -2.5253  -21.3644 H   0  0  0  0  0  0  0  0  0  0  0  0
   -9.4778   -2.8983  -23.0045 H   0  0  0  0  0  0  0  0  0  0  0  0
   -6.3977    0.2118  -22.3240 H   0  0  0  0  0  0  0  0  0  0  0  0
   -4.5026    1.6773  -22.7610 H   0  0  0  0  0  0  0  0  0  0  0  0
   -3.3690    2.8457  -20.9166 H   0  0  0  0  0  0  0  0  0  0  0  0
   -4.0927    2.5201  -18.6120 H   0  0  0  0  0  0  0  0  0  0  0  0
   -5.5990    1.3633  -16.9742 H   0  0  0  0  0  0  0  0  0  0  0  0
   -8.5911   -1.1923  -18.2370 H   0  0  0  0  0  0  0  0  0  0  0  0
  1  2  2  0
  2  3  1  0
  2 14  1  0
  3  4  1  0
  3  7  1  0
  3 17  1  1
  4  5  1  0
  4 28  1  1
  4 29  1  0
  5  6  1  0
  5 30  1  6
  5 31  1  0
  6  8  1  0
  7  8  2  0
  7 11  1  0
  8  9  1  0
  9 10  2  0
  9 32  1  0
 10 12  1  0
 10 33  1  0
 11 12  2  0
 11 34  1  0
 12 13  1  0
 14 15  1  0
 14 18  1  0
 15 16  2  0
 15 17  1  0
 17 35  1  0
 18 19  2  0
 18 27  1  0
 19 20  1  0
 19 24  1  0
 20 21  2  0
 20 36  1  0
 21 22  1  0
 21 37  1  0
 22 23  2  0
 22 38  1  0
 23 24  1  0
 23 39  1  0
 24 25  2  0
 25 26  1  0
 25 40  1  0
 26 27  2  0
 27 41  1  0
M  END
$$$$
