LIG(A-305)
     RDKit          3D

 26 26  0  0  1  0  0  0  0  0999 V2000
   14.0317   -1.7609   21.3591 Cl  0  0  0  0  0  0  0  0  0  0  0  0
   12.7067   -1.0848   22.2661 C   0  0  0  0  0  0  0  0  0  0  0  0
   12.9197    0.0363   23.0380 C   0  0  0  0  0  0  0  0  0  0  0  0
   11.8808    0.5063   23.8280 C   0  0  0  0  0  0  0  0  0  0  0  0
   10.6478   -0.1277   23.8121 C   0  0  0  0  0  0  0  0  0  0  0  0
   11.4807   -1.7178   22.2262 C   0  0  0  0  0  0  0  0  0  0  0  0
   10.4277   -1.2287   22.9932 C   0  0  0  0  0  0  0  0  0  0  0  0
    9.0537   -1.8637   22.8943 C   0  0  2  0  0  0  0  0  0  0  0  0
    8.8638   -2.8876   24.0073 C   0  0  1  0  0  0  0  0  0  0  0  0
    7.5947   -3.5256   23.9224 O   0  0  0  0  0  0  0  0  0  0  0  0
    8.8287   -2.5228   21.6103 N   0  0  0  0  0  0  0  0  0  0  0  0
    8.3246   -1.8919   20.5443 C   0  0  0  0  0  0  0  0  0  0  0  0
    8.0926   -0.6859   20.5372 O   0  0  0  0  0  0  0  0  0  0  0  0
    8.0886   -2.7140   19.2894 C   0  0  1  0  0  0  0  0  0  0  0  0
   13.8757    0.5387   23.0283 H   0  0  0  0  0  0  0  0  0  0  0  0
   12.0330    1.3701   24.4582 H   0  0  0  0  0  0  0  0  0  0  0  0
    9.8505    0.2378   24.4423 H   0  0  0  0  0  0  0  0  0  0  0  0
   11.3395   -2.5883   21.6027 H   0  0  0  0  0  0  0  0  0  0  0  0
    8.3003   -1.0731   23.0256 H   0  0  0  0  0  0  0  0  0  0  0  0
    9.6525   -3.6503   23.9290 H   0  0  0  0  0  0  0  0  0  0  0  0
    8.9423   -2.3775   24.9787 H   0  0  0  0  0  0  0  0  0  0  0  0
    7.0816   -3.1205   23.2332 H   0  0  0  0  0  0  0  0  0  0  0  0
    9.0624   -3.4913   21.5244 H   0  0  0  0  0  0  0  0  0  0  0  0
    7.7132   -2.0608   18.4877 H   0  0  0  0  0  0  0  0  0  0  0  0
    9.0340   -3.1778   18.9718 H   0  0  0  0  0  0  0  0  0  0  0  0
    7.3475   -3.4992   19.4995 H   0  0  0  0  0  0  0  0  0  0  0  0
  1  2  1  0
  2  3  2  0
  2  6  1  0
  3  4  1  0
  3 15  1  0
  4  5  2  0
  4 16  1  0
  5  7  1  0
  5 17  1  0
  6  7  2  0
  6 18  1  0
  7  8  1  0
  8  9  1  0
  8 11  1  0
  8 19  1  1
  9 10  1  0
  9 20  1  1
  9 21  1  0
 10 22  1  0
 11 12  1  0
 11 23  1  0
 12 13  2  0
 12 14  1  0
 14 24  1  6
 14 25  1  0
 14 26  1  0
M  END
$$$$
