LIG(A-305)
     RDKit          3D

 35 36  0  0  1  0  0  0  0  0999 V2000
   10.6639   -4.4415   25.8722 C   0  0  1  0  0  0  0  0  0  0  0  0
    9.5639   -4.4796   24.8762 C   0  0  0  0  0  0  0  0  0  0  0  0
    8.8839   -5.6566   24.6423 C   0  0  0  0  0  0  0  0  0  0  0  0
    7.8659   -5.7257   23.7173 C   0  0  0  0  0  0  0  0  0  0  0  0
    7.5098   -4.5857   23.0023 C   0  0  0  0  0  0  0  0  0  0  0  0
    6.6738   -4.3498   20.7433 C   0  0  0  0  0  0  0  0  0  0  0  0
    7.9607   -3.6198   20.4343 C   0  0  1  0  0  0  0  0  0  0  0  0
    5.1248   -5.0539   22.5274 C   0  0  2  0  0  0  0  0  0  0  0  0
    4.9189   -4.5548   23.9524 C   0  0  1  0  0  0  0  0  0  0  0  0
    4.2949   -5.4009   24.7624 C   0  0  1  0  0  0  0  0  0  0  0  0
    4.9659   -6.5799   22.5524 C   0  0  1  0  0  0  0  0  0  0  0  0
    8.1798   -3.3847   23.2332 C   0  0  0  0  0  0  0  0  0  0  0  0
    9.2058   -3.3506   24.1552 C   0  0  0  0  0  0  0  0  0  0  0  0
    6.4428   -4.6528   22.0523 N   0  0  0  0  0  0  0  0  0  0  0  0
    5.8737   -4.6399   19.8653 O   0  0  0  0  0  0  0  0  0  0  0  0
    2.5620   -6.9890   23.5885 O   0  0  0  0  0  0  0  0  0  0  0  0
    4.4791   -8.0078   24.7465 O   0  0  0  0  0  0  0  0  0  0  0  0
    3.9470   -6.9189   23.9735 S   0  0  2  0  0  0  0  0  0  0  0  0
   10.7902   -5.4391   26.3181 H   0  0  0  0  0  0  0  0  0  0  0  0
   11.5982   -4.1412   25.3751 H   0  0  0  0  0  0  0  0  0  0  0  0
   10.4188   -3.7156   26.6615 H   0  0  0  0  0  0  0  0  0  0  0  0
    9.1557   -6.5430   25.1963 H   0  0  0  0  0  0  0  0  0  0  0  0
    7.3475   -6.6578   23.5480 H   0  0  0  0  0  0  0  0  0  0  0  0
    8.0207   -3.4226   19.3537 H   0  0  0  0  0  0  0  0  0  0  0  0
    7.9821   -2.6664   20.9825 H   0  0  0  0  0  0  0  0  0  0  0  0
    8.8163   -4.2389   20.7418 H   0  0  0  0  0  0  0  0  0  0  0  0
    4.3457   -4.6246   21.8803 H   0  0  0  0  0  0  0  0  0  0  0  0
    5.9074   -4.3376   24.3831 H   0  0  0  0  0  0  0  0  0  0  0  0
    4.3273   -3.6286   23.9065 H   0  0  0  0  0  0  0  0  0  0  0  0
    4.9338   -5.5927   25.6371 H   0  0  0  0  0  0  0  0  0  0  0  0
    3.3491   -4.9460   25.0918 H   0  0  0  0  0  0  0  0  0  0  0  0
    4.4753   -6.9319   21.6330 H   0  0  0  0  0  0  0  0  0  0  0  0
    5.9462   -7.0683   22.6551 H   0  0  0  0  0  0  0  0  0  0  0  0
    7.8986   -2.4908   22.6962 H   0  0  0  0  0  0  0  0  0  0  0  0
    9.7405   -2.4266   24.3185 H   0  0  0  0  0  0  0  0  0  0  0  0
  1  2  1  0
  1 19  1  1
  1 20  1  0
  1 21  1  0
  2  3  2  0
  2 13  1  0
  3  4  1  0
  3 22  1  0
  4  5  2  0
  4 23  1  0
  5 12  1  0
  5 14  1  0
  6  7  1  0
  6 14  1  0
  6 15  2  0
  7 24  1  6
  7 25  1  0
  7 26  1  0
  8  9  1  0
  8 11  1  0
  8 14  1  0
  8 27  1  6
  9 10  1  0
  9 28  1  1
  9 29  1  0
 18 10  1  1
 10 30  1  1
 10 31  1  0
 11 18  1  0
 11 32  1  6
 11 33  1  0
 12 13  2  0
 12 34  1  0
 13 35  1  0
 16 18  2  0
 17 18  2  0
M  END
$$$$
