LIG(A-305)
     RDKit          3D

 28 29  0  0  0  0  0  0  0  0999 V2000
   14.5589   -2.1138   20.5300 N   0  0  0  0  0  0  0  0  0  0  0  0
   13.8349   -1.5537   21.2100 C   0  0  0  0  0  0  0  0  0  0  0  0
   12.8789   -0.8707   22.0400 C   0  0  0  0  0  0  0  0  0  0  0  0
   13.2580    0.1474   22.9129 C   0  0  0  0  0  0  0  0  0  0  0  0
   12.3850    0.8475   23.6489 N   0  0  0  0  0  0  0  0  0  0  0  0
   11.0810    0.5574   23.5060 C   0  0  0  0  0  0  0  0  0  0  0  0
   11.5249   -1.1647   21.9211 C   0  0  0  0  0  0  0  0  0  0  0  0
   10.5970   -0.4226   22.6351 C   0  0  0  0  0  0  0  0  0  0  0  0
    9.2419   -0.6307   22.3062 N   0  0  0  0  0  0  0  0  0  0  0  0
    8.5339    0.0343   21.3742 C   0  0  0  0  0  0  0  0  0  0  0  0
    8.9359    1.0532   20.8191 O   0  0  0  0  0  0  0  0  0  0  0  0
    7.1859   -0.5768   21.0463 C   0  0  1  0  0  0  0  0  0  0  0  0
    6.5338    0.1101   19.8683 C   0  0  0  0  0  0  0  0  0  0  0  0
    7.0067   -0.0790   18.5803 C   0  0  0  0  0  0  0  0  0  0  0  0
    6.4817    0.5060   17.4973 N   0  0  0  0  0  0  0  0  0  0  0  0
    5.4357    1.3230   17.6833 C   0  0  0  0  0  0  0  0  0  0  0  0
    4.8898    1.5831   18.9263 C   0  0  0  0  0  0  0  0  0  0  0  0
    5.4488    0.9601   20.0273 C   0  0  0  0  0  0  0  0  0  0  0  0
   14.3082    0.3837   23.0002 H   0  0  0  0  0  0  0  0  0  0  0  0
   10.3672    1.1124   24.0968 H   0  0  0  0  0  0  0  0  0  0  0  0
   11.1981   -1.9668   21.2760 H   0  0  0  0  0  0  0  0  0  0  0  0
    8.7589   -1.3427   22.8158 H   0  0  0  0  0  0  0  0  0  0  0  0
    7.3256   -1.6411   20.8061 H   0  0  0  0  0  0  0  0  0  0  0  0
    6.5285   -0.4820   21.9231 H   0  0  0  0  0  0  0  0  0  0  0  0
    7.8505   -0.7386   18.4416 H   0  0  0  0  0  0  0  0  0  0  0  0
    4.9979    1.8016   16.8197 H   0  0  0  0  0  0  0  0  0  0  0  0
    4.0503    2.2539   19.0347 H   0  0  0  0  0  0  0  0  0  0  0  0
    5.0405    1.1355   21.0116 H   0  0  0  0  0  0  0  0  0  0  0  0
  1  2  3  0
  2  3  1  0
  3  4  2  0
  3  7  1  0
  4  5  1  0
  4 19  1  0
  5  6  2  0
  6  8  1  0
  6 20  1  0
  7  8  2  0
  7 21  1  0
  8  9  1  0
  9 10  1  0
  9 22  1  0
 10 11  2  0
 10 12  1  0
 12 13  1  0
 12 23  1  6
 12 24  1  0
 13 14  2  0
 13 18  1  0
 14 15  1  0
 14 25  1  0
 15 16  2  0
 16 17  1  0
 16 26  1  0
 17 18  2  0
 17 27  1  0
 18 28  1  0
M  END
$$$$
