LIG(A-305)
     RDKit          3D

 44 47  0  0  0  0  0  0  0  0999 V2000
    6.6599    0.9082   16.8112 O   0  0  0  0  0  0  0  0  0  0  0  0
    6.1322    0.7484   17.9143 C   0  0  0  0  0  0  0  0  0  0  0  0
    6.5032   -0.2796   18.8333 C   0  0  0  0  0  0  0  0  0  0  0  0
    5.1695    1.6186   18.3485 N   0  0  0  0  0  0  0  0  0  0  0  0
    4.5707    1.5699   19.5976 C   0  0  0  0  0  0  0  0  0  0  0  0
    3.5870    2.4931   19.9448 C   0  0  0  0  0  0  0  0  0  0  0  0
    2.9713    2.4054   21.1809 C   0  0  0  0  0  0  0  0  0  0  0  0
    3.3233    1.4134   22.0699 C   0  0  0  0  0  0  0  0  0  0  0  0
    4.3100    0.4961   21.7468 C   0  0  0  0  0  0  0  0  0  0  0  0
    4.9457    0.5599   20.5076 C   0  0  0  0  0  0  0  0  0  0  0  0
    5.9664   -0.3944   20.0774 C   0  0  0  0  0  0  0  0  0  0  0  0
    6.3944   -1.5504   20.9444 C   0  0  0  0  0  0  0  0  0  0  0  0
    5.5952   -2.4612   21.1357 O   0  0  0  0  0  0  0  0  0  0  0  0
    7.6505   -1.5896   21.4431 N   0  0  0  0  0  0  0  0  0  0  0  0
    8.0684   -2.7206   22.2861 C   0  0  1  0  0  0  0  0  0  0  0  0
    8.7588   -2.2227   23.5439 C   0  0  1  0  0  0  0  0  0  0  0  0
    9.8580   -1.3140   23.1966 N   0  0  0  0  0  0  0  0  0  0  0  0
    9.4690   -0.1799   22.3496 C   0  0  1  0  0  0  0  0  0  0  0  0
    8.7386   -0.6569   21.0958 C   0  0  1  0  0  0  0  0  0  0  0  0
   11.1870   -1.6252   23.4883 C   0  0  0  0  0  0  0  0  0  0  0  0
   11.5181   -2.2602   24.6913 C   0  0  0  0  0  0  0  0  0  0  0  0
   12.8401   -2.5854   24.9640 C   0  0  0  0  0  0  0  0  0  0  0  0
   13.8350   -2.2837   24.0587 C   0  0  0  0  0  0  0  0  0  0  0  0
   13.5168   -1.6568   22.8698 C   0  0  0  0  0  0  0  0  0  0  0  0
   12.2038   -1.3215   22.5770 C   0  0  0  0  0  0  0  0  0  0  0  0
    7.2458   -1.0007   18.5254 H   0  0  0  0  0  0  0  0  0  0  0  0
    4.8784    2.3408   17.7241 H   0  0  0  0  0  0  0  0  0  0  0  0
    3.3063    3.2733   19.2527 H   0  0  0  0  0  0  0  0  0  0  0  0
    2.2084    3.1205   21.4511 H   0  0  0  0  0  0  0  0  0  0  0  0
    2.8259    1.3503   23.0265 H   0  0  0  0  0  0  0  0  0  0  0  0
    4.5872   -0.2697   22.4561 H   0  0  0  0  0  0  0  0  0  0  0  0
    7.1823   -3.3080   22.5685 H   0  0  0  0  0  0  0  0  0  0  0  0
    8.7644   -3.3564   21.7192 H   0  0  0  0  0  0  0  0  0  0  0  0
    8.0299   -1.6876   24.1703 H   0  0  0  0  0  0  0  0  0  0  0  0
    9.1607   -3.0816   24.1014 H   0  0  0  0  0  0  0  0  0  0  0  0
    8.8050    0.4849   22.9215 H   0  0  0  0  0  0  0  0  0  0  0  0
   10.3723    0.3723   22.0512 H   0  0  0  0  0  0  0  0  0  0  0  0
    9.4539   -1.1682   20.4349 H   0  0  0  0  0  0  0  0  0  0  0  0
    8.3141    0.2131   20.5734 H   0  0  0  0  0  0  0  0  0  0  0  0
   10.7451   -2.4971   25.4073 H   0  0  0  0  0  0  0  0  0  0  0  0
   13.0907   -3.0782   25.8918 H   0  0  0  0  0  0  0  0  0  0  0  0
   14.8615   -2.5372   24.2788 H   0  0  0  0  0  0  0  0  0  0  0  0
   14.2985   -1.4255   22.1612 H   0  0  0  0  0  0  0  0  0  0  0  0
   11.9665   -0.8267   21.6469 H   0  0  0  0  0  0  0  0  0  0  0  0
  1  2  2  0
  2  3  1  0
  2  4  1  0
  3 11  2  0
  3 26  1  0
  4  5  1  0
  4 27  1  0
  5  6  2  0
  5 10  1  0
  6  7  1  0
  6 28  1  0
  7  8  2  0
  7 29  1  0
  8  9  1  0
  8 30  1  0
  9 10  2  0
  9 31  1  0
 10 11  1  0
 11 12  1  0
 12 13  2  0
 12 14  1  0
 14 15  1  0
 14 19  1  0
 15 16  1  0
 15 32  1  1
 15 33  1  0
 16 17  1  0
 16 34  1  1
 16 35  1  0
 17 18  1  0
 17 20  1  0
 18 19  1  0
 18 36  1  1
 18 37  1  0
 19 38  1  6
 19 39  1  0
 20 21  2  0
 20 25  1  0
 21 22  1  0
 21 40  1  0
 22 23  2  0
 22 41  1  0
 23 24  1  0
 23 42  1  0
 24 25  2  0
 24 43  1  0
 25 44  1  0
M  END
$$$$
