LIG(A-306)
     RDKit          3D

 52 56  0  0  1  0  0  0  0  0999 V2000
    8.6891    3.3840   25.8266 O   0  0  0  0  0  0  0  0  0  0  0  0
    7.9115    2.4218   25.1231 S   0  0  1  0  0  0  0  0  0  0  0  0
    6.8888    1.6818   25.7794 O   0  0  0  0  0  0  0  0  0  0  0  0
    7.2491    3.2233   23.9039 N   0  0  0  0  0  0  0  0  0  0  0  0
    7.7720    3.5377   22.5465 C   0  0  1  0  0  0  0  0  0  0  0  0
    6.6707    4.5967   22.4198 C   0  0  1  0  0  0  0  0  0  0  0  0
    5.9956    3.9843   23.6526 C   0  0  1  0  0  0  0  0  0  0  0  0
    8.9200    1.3657   24.4627 N   0  0  0  0  0  0  0  0  0  0  0  0
   10.3087    1.4151   24.9340 C   0  0  1  0  0  0  0  0  0  0  0  0
    8.4431   -0.0017   24.1903 C   0  0  1  0  0  0  0  0  0  0  0  0
    9.2028   -0.5800   22.9934 C   0  0  2  0  0  0  0  0  0  0  0  0
   10.7033   -0.3590   23.1379 C   0  0  0  0  0  0  0  0  0  0  0  0
   11.2038    0.6185   24.0173 C   0  0  0  0  0  0  0  0  0  0  0  0
   12.5753    0.8697   24.0515 C   0  0  0  0  0  0  0  0  0  0  0  0
   13.4501    0.1746   23.2413 C   0  0  0  0  0  0  0  0  0  0  0  0
   11.5992   -1.0869   22.3488 C   0  0  0  0  0  0  0  0  0  0  0  0
   12.9546   -0.8017   22.4079 C   0  0  0  0  0  0  0  0  0  0  0  0
   14.0558   -1.6674   21.3706 Cl  0  0  0  0  0  0  0  0  0  0  0  0
    8.6929    0.0755   21.7070 C   0  0  0  0  0  0  0  0  0  0  0  0
    9.2680    1.0332   21.1914 O   0  0  0  0  0  0  0  0  0  0  0  0
    7.5252   -0.4304   21.2290 N   0  0  0  0  0  0  0  0  0  0  0  0
    6.7635    0.0515   20.1333 C   0  0  0  0  0  0  0  0  0  0  0  0
    5.5688    0.7992   20.3942 C   0  0  0  0  0  0  0  0  0  0  0  0
    5.0308    1.0014   21.6920 C   0  0  0  0  0  0  0  0  0  0  0  0
    3.8882    1.7318   21.8759 C   0  0  0  0  0  0  0  0  0  0  0  0
    3.2293    2.3020   20.7929 C   0  0  0  0  0  0  0  0  0  0  0  0
    3.7032    2.1308   19.5239 C   0  0  0  0  0  0  0  0  0  0  0  0
    4.8769    1.3702   19.2871 C   0  0  0  0  0  0  0  0  0  0  0  0
    5.4039    1.1459   17.9914 C   0  0  0  0  0  0  0  0  0  0  0  0
    6.5025    0.4471   17.7462 N   0  0  0  0  0  0  0  0  0  0  0  0
    7.1533   -0.0743   18.7971 C   0  0  0  0  0  0  0  0  0  0  0  0
    8.7955    3.9405   22.5341 H   0  0  0  0  0  0  0  0  0  0  0  0
    7.6945    2.7109   21.8252 H   0  0  0  0  0  0  0  0  0  0  0  0
    7.0168    5.6316   22.5578 H   0  0  0  0  0  0  0  0  0  0  0  0
    6.0781    4.5284   21.4956 H   0  0  0  0  0  0  0  0  0  0  0  0
    5.1192    3.3583   23.4288 H   0  0  0  0  0  0  0  0  0  0  0  0
    5.7371    4.7094   24.4383 H   0  0  0  0  0  0  0  0  0  0  0  0
   10.6481    2.4612   24.9528 H   0  0  0  0  0  0  0  0  0  0  0  0
   10.3623    0.9939   25.9488 H   0  0  0  0  0  0  0  0  0  0  0  0
    8.6166   -0.6332   25.0742 H   0  0  0  0  0  0  0  0  0  0  0  0
    7.3670    0.0239   23.9635 H   0  0  0  0  0  0  0  0  0  0  0  0
    9.0071   -1.6611   22.9401 H   0  0  0  0  0  0  0  0  0  0  0  0
   12.9598    1.6219   24.7244 H   0  0  0  0  0  0  0  0  0  0  0  0
   14.5075    0.3936   23.2611 H   0  0  0  0  0  0  0  0  0  0  0  0
   11.2371   -1.8677   21.6964 H   0  0  0  0  0  0  0  0  0  0  0  0
    7.1621   -1.2326   21.7031 H   0  0  0  0  0  0  0  0  0  0  0  0
    5.5310    0.5723   22.5476 H   0  0  0  0  0  0  0  0  0  0  0  0
    3.4944    1.8666   22.8725 H   0  0  0  0  0  0  0  0  0  0  0  0
    2.3353    2.8853   20.9565 H   0  0  0  0  0  0  0  0  0  0  0  0
    3.1793    2.5787   18.6923 H   0  0  0  0  0  0  0  0  0  0  0  0
    4.8768    1.5715   17.1502 H   0  0  0  0  0  0  0  0  0  0  0  0
    8.0522   -0.6374   18.5938 H   0  0  0  0  0  0  0  0  0  0  0  0
  1  2  2  0
  2  3  2  0
  2  4  1  6
  2  8  1  0
  4  5  1  0
  4  7  1  0
  5  6  1  0
  5 32  1  1
  5 33  1  0
  6  7  1  0
  6 34  1  1
  6 35  1  0
  7 36  1  6
  7 37  1  0
  8  9  1  0
  8 10  1  0
  9 13  1  0
  9 38  1  1
  9 39  1  0
 10 11  1  0
 10 40  1  1
 10 41  1  0
 11 12  1  0
 11 19  1  0
 11 42  1  6
 12 13  2  0
 12 16  1  0
 13 14  1  0
 14 15  2  0
 14 43  1  0
 15 17  1  0
 15 44  1  0
 16 17  2  0
 16 45  1  0
 17 18  1  0
 19 20  2  0
 19 21  1  0
 21 22  1  0
 21 46  1  0
 22 23  2  0
 22 31  1  0
 23 24  1  0
 23 28  1  0
 24 25  2  0
 24 47  1  0
 25 26  1  0
 25 48  1  0
 26 27  2  0
 26 49  1  0
 27 28  1  0
 27 50  1  0
 28 29  2  0
 29 30  1  0
 29 51  1  0
 30 31  2  0
 31 52  1  0
M  END
$$$$
