LIG(A-305)
     RDKit          3D

 31 32  0  0  0  0  0  0  0  0999 V2000
   10.5145    0.7531   22.9581 C   0  0  0  0  0  0  0  0  0  0  0  0
    6.3520    0.5578   17.4014 N   0  0  0  0  0  0  0  0  0  0  0  0
   12.6524   -0.9370   22.5880 C   0  0  0  0  0  0  0  0  0  0  0  0
    5.2082    1.0030   19.9165 C   0  0  0  0  0  0  0  0  0  0  0  0
   12.8645    0.2961   23.1709 C   0  0  0  0  0  0  0  0  0  0  0  0
    4.5993    1.3080   21.2615 C   0  0  1  0  0  0  0  0  0  0  0  0
   10.3334   -0.4660   22.3132 C   0  0  0  0  0  0  0  0  0  0  0  0
    4.7631    1.6839   18.7885 C   0  0  0  0  0  0  0  0  0  0  0  0
    9.0744   -0.8250   21.7923 N   0  0  0  0  0  0  0  0  0  0  0  0
    6.8283   -0.6680   20.9385 C   0  0  1  0  0  0  0  0  0  0  0  0
    8.3743    1.1670   20.9492 O   0  0  0  0  0  0  0  0  0  0  0  0
    6.2472    0.0719   19.7565 C   0  0  0  0  0  0  0  0  0  0  0  0
    8.1663   -0.0130   21.2163 C   0  0  0  0  0  0  0  0  0  0  0  0
    6.7611   -0.1091   18.4844 C   0  0  0  0  0  0  0  0  0  0  0  0
   11.7815    1.1351   23.3690 C   0  0  0  0  0  0  0  0  0  0  0  0
   11.4094   -1.3270   22.1351 C   0  0  0  0  0  0  0  0  0  0  0  0
    5.3650    1.4448   17.5695 C   0  0  0  0  0  0  0  0  0  0  0  0
   13.9494   -2.0920   22.5680 Cl  0  0  0  0  0  0  0  0  0  0  0  0
    9.6691    1.4006   23.1382 H   0  0  0  0  0  0  0  0  0  0  0  0
   13.8574    0.6007   23.4671 H   0  0  0  0  0  0  0  0  0  0  0  0
    3.8303    2.0864   21.1484 H   0  0  0  0  0  0  0  0  0  0  0  0
    4.1405    0.3962   21.6715 H   0  0  0  0  0  0  0  0  0  0  0  0
    5.3831    1.6640   21.9464 H   0  0  0  0  0  0  0  0  0  0  0  0
    3.9531    2.3940   18.8656 H   0  0  0  0  0  0  0  0  0  0  0  0
    8.8267   -1.7917   21.8575 H   0  0  0  0  0  0  0  0  0  0  0  0
    6.1668   -0.5742   21.8123 H   0  0  0  0  0  0  0  0  0  0  0  0
    6.9655   -1.7319   20.6949 H   0  0  0  0  0  0  0  0  0  0  0  0
    7.5466   -0.8396   18.3585 H   0  0  0  0  0  0  0  0  0  0  0  0
   11.9249    2.0931   23.8465 H   0  0  0  0  0  0  0  0  0  0  0  0
   11.2749   -2.2832   21.6514 H   0  0  0  0  0  0  0  0  0  0  0  0
    5.0224    2.0011   16.7095 H   0  0  0  0  0  0  0  0  0  0  0  0
  1  7  1  0
  1 15  2  0
  1 19  1  0
  2 14  1  0
  2 17  2  0
  3  5  2  0
  3 16  1  0
  3 18  1  0
  4  6  1  0
  4  8  2  0
  4 12  1  0
  5 15  1  0
  5 20  1  0
  6 21  1  6
  6 22  1  0
  6 23  1  0
  7  9  1  0
  7 16  2  0
  8 17  1  0
  8 24  1  0
  9 13  1  0
  9 25  1  0
 10 12  1  0
 10 13  1  0
 10 26  1  1
 10 27  1  0
 11 13  2  0
 12 14  2  0
 14 28  1  0
 15 29  1  0
 16 30  1  0
 17 31  1  0
M  END
$$$$
