LIG(A-305)
     RDKit          3D

 12 12  0  0  0  0  0  0  0  0999 V2000
   13.0113  -27.3281    3.7998 N   0  0  0  0  0  0  0  0  0  0  0  0
   11.9014  -26.6211    3.4018 C   0  0  0  0  0  0  0  0  0  0  0  0
   10.7903  -27.3250    3.0849 O   0  0  0  0  0  0  0  0  0  0  0  0
   11.8494  -25.2141    3.2748 C   0  0  0  0  0  0  0  0  0  0  0  0
   13.0125  -24.5121    3.5737 C   0  0  0  0  0  0  0  0  0  0  0  0
   14.1685  -25.2022    3.9767 C   0  0  0  0  0  0  0  0  0  0  0  0
   14.1194  -26.5972    4.0737 C   0  0  0  0  0  0  0  0  0  0  0  0
   12.9875  -28.3245    3.8808 H   0  0  0  0  0  0  0  0  0  0  0  0
   10.9488  -24.7078    2.9603 H   0  0  0  0  0  0  0  0  0  0  0  0
   13.0272  -23.4350    3.4960 H   0  0  0  0  0  0  0  0  0  0  0  0
   15.0773  -24.6660    4.2070 H   0  0  0  0  0  0  0  0  0  0  0  0
   15.0125  -27.1195    4.3836 H   0  0  0  0  0  0  0  0  0  0  0  0
  1  2  1  0
  1  7  1  0
  1  8  1  0
  2  3  2  0
  2  4  1  0
  4  5  2  0
  4  9  1  0
  5  6  1  0
  5 10  1  0
  6  7  2  0
  6 11  1  0
  7 12  1  0
M  END
$$$$
