LIG(A-305)
     RDKit          3D

 37 38  0  0  1  0  0  0  0  0999 V2000
   13.8706   -1.8801   21.4002 Cl  0  0  0  0  0  0  0  0  0  0  0  0
   12.7356   -0.8840   22.2701 C   0  0  0  0  0  0  0  0  0  0  0  0
   13.1796    0.2690   22.8850 C   0  0  0  0  0  0  0  0  0  0  0  0
   12.2496    1.0981   23.4970 C   0  0  0  0  0  0  0  0  0  0  0  0
   10.9046    0.7591   23.4950 C   0  0  0  0  0  0  0  0  0  0  0  0
   11.4036   -1.2410   22.2711 C   0  0  0  0  0  0  0  0  0  0  0  0
   10.4676   -0.4059   22.8770 C   0  0  0  0  0  0  0  0  0  0  0  0
    8.9786   -0.7199   22.7600 C   0  0  1  0  0  0  0  0  0  0  0  0
    8.2445   -0.2838   24.0220 C   0  0  0  0  0  0  0  0  0  0  0  0
    7.5506    0.6932   24.1069 O   0  0  0  0  0  0  0  0  0  0  0  0
    8.5155   -1.1108   25.0340 O   0  0  0  0  0  0  0  0  0  0  0  0
    8.0975   -0.6867   26.3530 C   0  0  1  0  0  0  0  0  0  0  0  0
    8.4066    0.0340   21.5339 C   0  0  0  0  0  0  0  0  0  0  0  0
    8.9186    1.0630   21.1089 O   0  0  0  0  0  0  0  0  0  0  0  0
    7.3126   -0.5290   20.9880 N   0  0  0  0  0  0  0  0  0  0  0  0
    6.6126    0.0680   19.9069 C   0  0  0  0  0  0  0  0  0  0  0  0
    5.4607    0.8330   20.1578 C   0  0  0  0  0  0  0  0  0  0  0  0
    4.9096    1.0111   21.5508 C   0  0  1  0  0  0  0  0  0  0  0  0
    4.8637    1.4670   19.0738 C   0  0  0  0  0  0  0  0  0  0  0  0
    5.4097    1.3229   17.8118 C   0  0  0  0  0  0  0  0  0  0  0  0
    6.5027    0.5918   17.5589 N   0  0  0  0  0  0  0  0  0  0  0  0
    7.0847   -0.0201   18.5959 C   0  0  0  0  0  0  0  0  0  0  0  0
   14.2297    0.5212   22.8900 H   0  0  0  0  0  0  0  0  0  0  0  0
   12.5742    2.0099   23.9761 H   0  0  0  0  0  0  0  0  0  0  0  0
   10.1894    1.4077   23.9789 H   0  0  0  0  0  0  0  0  0  0  0  0
   11.0879   -2.1626   21.8048 H   0  0  0  0  0  0  0  0  0  0  0  0
    8.8434   -1.8016   22.6130 H   0  0  0  0  0  0  0  0  0  0  0  0
    8.3786   -1.4523   27.0911 H   0  0  0  0  0  0  0  0  0  0  0  0
    8.5898    0.2640   26.6054 H   0  0  0  0  0  0  0  0  0  0  0  0
    7.0062   -0.5491   26.3650 H   0  0  0  0  0  0  0  0  0  0  0  0
    6.9816   -1.3976   21.3566 H   0  0  0  0  0  0  0  0  0  0  0  0
    5.6676    1.4917   22.1868 H   0  0  0  0  0  0  0  0  0  0  0  0
    4.0103    1.6432   21.5111 H   0  0  0  0  0  0  0  0  0  0  0  0
    4.6489    0.0282   21.9703 H   0  0  0  0  0  0  0  0  0  0  0  0
    3.9783    2.0687   19.2168 H   0  0  0  0  0  0  0  0  0  0  0  0
    4.9291    1.8267   16.9862 H   0  0  0  0  0  0  0  0  0  0  0  0
    7.9671   -0.6142   18.4093 H   0  0  0  0  0  0  0  0  0  0  0  0
  1  2  1  0
  2  3  2  0
  2  6  1  0
  3  4  1  0
  3 23  1  0
  4  5  2  0
  4 24  1  0
  5  7  1  0
  5 25  1  0
  6  7  2  0
  6 26  1  0
  7  8  1  0
  8  9  1  0
  8 13  1  0
  8 27  1  6
  9 10  2  0
  9 11  1  0
 11 12  1  0
 12 28  1  1
 12 29  1  0
 12 30  1  0
 13 14  2  0
 13 15  1  0
 15 16  1  0
 15 31  1  0
 16 17  2  0
 16 22  1  0
 17 18  1  0
 17 19  1  0
 18 32  1  1
 18 33  1  0
 18 34  1  0
 19 20  2  0
 19 35  1  0
 20 21  1  0
 20 36  1  0
 21 22  2  0
 22 37  1  0
M  END
$$$$
