LIG(A-306)
     RDKit          3D

 40 43  0  0  1  0  0  0  0  0999 V2000
    9.3690    1.1218   21.2895 O   0  0  0  0  0  0  0  0  0  0  0  0
    8.8733    0.1039   21.7758 C   0  0  0  0  0  0  0  0  0  0  0  0
    7.7580   -0.4884   21.2772 N   0  0  0  0  0  0  0  0  0  0  0  0
    6.9802   -0.0660   20.1734 C   0  0  0  0  0  0  0  0  0  0  0  0
    5.7883    0.6851   20.4283 C   0  0  0  0  0  0  0  0  0  0  0  0
    5.2881    0.9518   21.7299 C   0  0  0  0  0  0  0  0  0  0  0  0
    4.1692    1.7160   21.9098 C   0  0  0  0  0  0  0  0  0  0  0  0
    3.4938    2.2509   20.8189 C   0  0  0  0  0  0  0  0  0  0  0  0
    3.9343    2.0225   19.5459 C   0  0  0  0  0  0  0  0  0  0  0  0
    5.0885    1.2324   19.3138 C   0  0  0  0  0  0  0  0  0  0  0  0
    5.6090    0.9837   18.0179 C   0  0  0  0  0  0  0  0  0  0  0  0
    6.7068    0.2773   17.7804 N   0  0  0  0  0  0  0  0  0  0  0  0
    7.3583   -0.2314   18.8395 C   0  0  0  0  0  0  0  0  0  0  0  0
    9.4882   -0.6078   22.9828 C   0  0  1  0  0  0  0  0  0  0  0  0
   10.9874   -0.3669   23.0264 C   0  0  0  0  0  0  0  0  0  0  0  0
   11.8317   -1.1093   22.1999 C   0  0  0  0  0  0  0  0  0  0  0  0
   13.1643   -0.7630   22.0848 C   0  0  0  0  0  0  0  0  0  0  0  0
   14.1752   -1.6537   20.9870 Cl  0  0  0  0  0  0  0  0  0  0  0  0
    8.8235   -0.1890   24.3056 C   0  0  1  0  0  0  0  0  0  0  0  0
    9.0945    1.2462   24.4917 N   0  0  0  0  0  0  0  0  0  0  0  0
   10.6225    1.5354   24.9744 S   0  0  2  0  0  0  0  0  0  0  0  0
   10.8037    0.9212   26.2573 O   0  0  0  0  0  0  0  0  0  0  0  0
   10.8786    2.9379   24.8392 O   0  0  0  0  0  0  0  0  0  0  0  0
   11.5631    0.6615   23.7817 C   0  0  0  0  0  0  0  0  0  0  0  0
   12.9034    0.9959   23.6579 C   0  0  0  0  0  0  0  0  0  0  0  0
   13.7044    0.2886   22.7853 C   0  0  0  0  0  0  0  0  0  0  0  0
    7.4512   -1.3181   21.7435 H   0  0  0  0  0  0  0  0  0  0  0  0
    5.7989    0.5451   22.5901 H   0  0  0  0  0  0  0  0  0  0  0  0
    3.8064    1.9060   22.9091 H   0  0  0  0  0  0  0  0  0  0  0  0
    2.6119    2.8533   20.9792 H   0  0  0  0  0  0  0  0  0  0  0  0
    3.3989    2.4472   18.7096 H   0  0  0  0  0  0  0  0  0  0  0  0
    5.0786    1.3949   17.1717 H   0  0  0  0  0  0  0  0  0  0  0  0
    8.2457   -0.8150   18.6435 H   0  0  0  0  0  0  0  0  0  0  0  0
    9.3236   -1.6878   22.8545 H   0  0  0  0  0  0  0  0  0  0  0  0
   11.4436   -1.9544   21.6505 H   0  0  0  0  0  0  0  0  0  0  0  0
    7.7388   -0.3645   24.2548 H   0  0  0  0  0  0  0  0  0  0  0  0
    9.2495   -0.7647   25.1406 H   0  0  0  0  0  0  0  0  0  0  0  0
    8.6506    1.9025   23.8816 H   0  0  0  0  0  0  0  0  0  0  0  0
   13.3175    1.8052   24.2411 H   0  0  0  0  0  0  0  0  0  0  0  0
   14.7421    0.5579   22.6546 H   0  0  0  0  0  0  0  0  0  0  0  0
  1  2  2  0
  2  3  1  0
  2 14  1  0
  3  4  1  0
  3 27  1  0
  4  5  2  0
  4 13  1  0
  5  6  1  0
  5 10  1  0
  6  7  2  0
  6 28  1  0
  7  8  1  0
  7 29  1  0
  8  9  2  0
  8 30  1  0
  9 10  1  0
  9 31  1  0
 10 11  2  0
 11 12  1  0
 11 32  1  0
 12 13  2  0
 13 33  1  0
 14 15  1  0
 14 19  1  0
 14 34  1  6
 15 16  2  0
 15 24  1  0
 16 17  1  0
 16 35  1  0
 17 18  1  0
 17 26  2  0
 19 20  1  0
 19 36  1  6
 19 37  1  0
 21 20  1  6
 20 38  1  0
 21 22  2  0
 21 23  2  0
 21 24  1  0
 24 25  2  0
 25 26  1  0
 25 39  1  0
 26 40  1  0
M  END
$$$$
