LIG(A-306)
     RDKit          3D

 51 54  0  0  1  0  0  0  0  0999 V2000
    6.0914    2.7984   24.6593 O   0  0  0  0  0  0  0  0  0  0  0  0
    4.7941    2.2019   24.7465 S   0  0  1  0  0  0  0  0  0  0  0  0
    4.6900    0.7905   24.9375 O   0  0  0  0  0  0  0  0  0  0  0  0
    3.9053    3.0011   26.0325 C   0  0  1  0  0  0  0  0  0  0  0  0
    4.0081    2.5507   23.3614 N   0  0  0  0  0  0  0  0  0  0  0  0
    4.3716    2.1060   22.0472 C   0  0  0  0  0  0  0  0  0  0  0  0
    3.5908    2.5055   20.9620 C   0  0  0  0  0  0  0  0  0  0  0  0
    3.9136    2.1383   19.6907 C   0  0  0  0  0  0  0  0  0  0  0  0
    5.4816    1.3098   21.8359 C   0  0  0  0  0  0  0  0  0  0  0  0
    5.8506    0.8976   20.5310 C   0  0  0  0  0  0  0  0  0  0  0  0
    5.0505    1.3300   19.4328 C   0  0  0  0  0  0  0  0  0  0  0  0
    5.4473    0.9451   18.1294 C   0  0  0  0  0  0  0  0  0  0  0  0
    6.5210    0.2111   17.8623 N   0  0  0  0  0  0  0  0  0  0  0  0
    7.2661   -0.1931   18.9014 C   0  0  0  0  0  0  0  0  0  0  0  0
    7.0043    0.0964   20.2410 C   0  0  0  0  0  0  0  0  0  0  0  0
    7.8293   -0.3297   21.3102 N   0  0  0  0  0  0  0  0  0  0  0  0
    8.9695    0.2435   21.7637 C   0  0  0  0  0  0  0  0  0  0  0  0
    9.4708    1.2500   21.2811 O   0  0  0  0  0  0  0  0  0  0  0  0
    9.6169   -0.4530   23.0094 C   0  0  1  0  0  0  0  0  0  0  0  0
    9.3447   -1.8333   22.7654 O   0  0  0  0  0  0  0  0  0  0  0  0
    9.7753   -2.7674   23.7654 C   0  0  1  0  0  0  0  0  0  0  0  0
   11.1131   -0.2174   23.0474 C   0  0  0  0  0  0  0  0  0  0  0  0
   11.9488   -0.8514   22.1341 C   0  0  0  0  0  0  0  0  0  0  0  0
   13.2869   -0.5143   22.0935 C   0  0  0  0  0  0  0  0  0  0  0  0
   14.3237   -1.3552   20.9715 Cl  0  0  0  0  0  0  0  0  0  0  0  0
   13.8247    0.4559   22.9125 C   0  0  0  0  0  0  0  0  0  0  0  0
   13.0049    1.0918   23.8328 C   0  0  0  0  0  0  0  0  0  0  0  0
   11.6630    0.7453   23.9036 C   0  0  0  0  0  0  0  0  0  0  0  0
   10.9420    1.3542   24.9013 O   0  0  0  0  0  0  0  0  0  0  0  0
    9.5183    1.4408   24.6529 C   0  0  1  0  0  0  0  0  0  0  0  0
    8.9249    0.1014   24.2627 C   0  0  2  0  0  0  0  0  0  0  0  0
    2.9026    2.5568   26.1169 H   0  0  0  0  0  0  0  0  0  0  0  0
    4.4435    2.8746   26.9835 H   0  0  0  0  0  0  0  0  0  0  0  0
    3.8131    4.0730   25.8031 H   0  0  0  0  0  0  0  0  0  0  0  0
    3.0202    2.6450   23.4842 H   0  0  0  0  0  0  0  0  0  0  0  0
    2.7163    3.1158   21.1328 H   0  0  0  0  0  0  0  0  0  0  0  0
    3.2958    2.4668   18.8680 H   0  0  0  0  0  0  0  0  0  0  0  0
    6.0782    0.9963   22.6798 H   0  0  0  0  0  0  0  0  0  0  0  0
    4.8375    1.2694   17.2991 H   0  0  0  0  0  0  0  0  0  0  0  0
    8.1391   -0.7906   18.6839 H   0  0  0  0  0  0  0  0  0  0  0  0
    7.5336   -1.1559   21.7896 H   0  0  0  0  0  0  0  0  0  0  0  0
    9.5056   -3.7877   23.4553 H   0  0  0  0  0  0  0  0  0  0  0  0
   10.8664   -2.6974   23.8867 H   0  0  0  0  0  0  0  0  0  0  0  0
    9.2844   -2.5331   24.7215 H   0  0  0  0  0  0  0  0  0  0  0  0
   11.5546   -1.6002   21.4631 H   0  0  0  0  0  0  0  0  0  0  0  0
   14.8699    0.7172   22.8382 H   0  0  0  0  0  0  0  0  0  0  0  0
   13.4072    1.8498   24.4886 H   0  0  0  0  0  0  0  0  0  0  0  0
    9.0199    1.7970   25.5665 H   0  0  0  0  0  0  0  0  0  0  0  0
    9.3437    2.1574   23.8367 H   0  0  0  0  0  0  0  0  0  0  0  0
    9.0578   -0.6083   25.0926 H   0  0  0  0  0  0  0  0  0  0  0  0
    7.8517    0.2279   24.0568 H   0  0  0  0  0  0  0  0  0  0  0  0
  1  2  2  0
  2  3  2  0
  2  4  1  0
  2  5  1  6
  4 32  1  1
  4 33  1  0
  4 34  1  0
  5  6  1  0
  5 35  1  0
  6  7  2  0
  6  9  1  0
  7  8  1  0
  7 36  1  0
  8 11  2  0
  8 37  1  0
  9 10  2  0
  9 38  1  0
 10 11  1  0
 10 15  1  0
 11 12  1  0
 12 13  2  0
 12 39  1  0
 13 14  1  0
 14 15  2  0
 14 40  1  0
 15 16  1  0
 16 17  1  0
 16 41  1  0
 17 18  2  0
 17 19  1  0
 19 20  1  6
 19 22  1  0
 19 31  1  0
 20 21  1  0
 21 42  1  6
 21 43  1  0
 21 44  1  0
 22 23  2  0
 22 28  1  0
 23 24  1  0
 23 45  1  0
 24 25  1  0
 24 26  2  0
 26 27  1  0
 26 46  1  0
 27 28  2  0
 27 47  1  0
 28 29  1  0
 29 30  1  0
 30 31  1  0
 30 48  1  1
 30 49  1  0
 31 50  1  1
 31 51  1  0
M  END
$$$$
