LIG(A-305)
     RDKit          3D

 32 34  0  0  0  0  0  0  0  0999 V2000
   14.0076   -2.6992   23.7411 Cl  0  0  0  0  0  0  0  0  0  0  0  0
   12.9377   -1.3712   23.3940 C   0  0  0  0  0  0  0  0  0  0  0  0
   13.4008   -0.0822   23.5470 C   0  0  0  0  0  0  0  0  0  0  0  0
   12.5199    0.9709   23.3809 C   0  0  0  0  0  0  0  0  0  0  0  0
   11.1988    0.7339   23.0450 C   0  0  0  0  0  0  0  0  0  0  0  0
   11.6387   -1.6411   23.0041 C   0  0  0  0  0  0  0  0  0  0  0  0
   10.7617   -0.5730   22.8241 C   0  0  0  0  0  0  0  0  0  0  0  0
    9.4697   -0.7810   22.2612 N   0  0  0  0  0  0  0  0  0  0  0  0
    8.6356   -1.9439   22.5973 C   0  0  0  0  0  0  0  0  0  0  0  0
    7.3716   -1.7279   21.7913 C   0  0  0  0  0  0  0  0  0  0  0  0
    8.8637    0.0630   21.3552 C   0  0  0  0  0  0  0  0  0  0  0  0
    9.3138    1.1080   20.9331 O   0  0  0  0  0  0  0  0  0  0  0  0
    7.6417   -0.4909   21.0412 N   0  0  0  0  0  0  0  0  0  0  0  0
    6.7636    0.0191   20.0273 C   0  0  0  0  0  0  0  0  0  0  0  0
    5.5957    0.7232   20.3213 C   0  0  0  0  0  0  0  0  0  0  0  0
    5.0868    0.8903   21.7313 C   0  0  1  0  0  0  0  0  0  0  0  0
    7.1786   -0.0770   18.7012 C   0  0  0  0  0  0  0  0  0  0  0  0
    6.5256    0.4830   17.6792 N   0  0  0  0  0  0  0  0  0  0  0  0
    5.4056    1.1561   17.9683 C   0  0  0  0  0  0  0  0  0  0  0  0
    4.9127    1.2972   19.2523 C   0  0  0  0  0  0  0  0  0  0  0  0
   14.4360    0.1028   23.7927 H   0  0  0  0  0  0  0  0  0  0  0  0
   12.8655    1.9852   23.5145 H   0  0  0  0  0  0  0  0  0  0  0  0
   10.5074    1.5585   22.9539 H   0  0  0  0  0  0  0  0  0  0  0  0
   11.3109   -2.6574   22.8426 H   0  0  0  0  0  0  0  0  0  0  0  0
    8.8695   -2.7613   23.2633 H   0  0  0  0  0  0  0  0  0  0  0  0
    6.4810   -2.3384   21.7717 H   0  0  0  0  0  0  0  0  0  0  0  0
    5.8427    1.4140   22.3348 H   0  0  0  0  0  0  0  0  0  0  0  0
    4.1569    1.4777   21.7181 H   0  0  0  0  0  0  0  0  0  0  0  0
    4.8893   -0.0992   22.1693 H   0  0  0  0  0  0  0  0  0  0  0  0
    8.0781   -0.6352   18.4874 H   0  0  0  0  0  0  0  0  0  0  0  0
    4.8586    1.6127   17.1567 H   0  0  0  0  0  0  0  0  0  0  0  0
    4.0014    1.8504   19.4254 H   0  0  0  0  0  0  0  0  0  0  0  0
  1  2  1  0
  2  3  2  0
  2  6  1  0
  3  4  1  0
  3 21  1  0
  4  5  2  0
  4 22  1  0
  5  7  1  0
  5 23  1  0
  6  7  2  0
  6 24  1  0
  7  8  1  0
  8  9  1  0
  8 11  1  0
  9 10  2  0
  9 25  1  0
 10 13  1  0
 10 26  1  0
 11 12  2  0
 11 13  1  0
 13 14  1  0
 14 15  2  0
 14 17  1  0
 15 16  1  0
 15 20  1  0
 16 27  1  1
 16 28  1  0
 16 29  1  0
 17 18  2  0
 17 30  1  0
 18 19  1  0
 19 20  2  0
 19 31  1  0
 20 32  1  0
M  END
$$$$
