LIG(A-307)
     RDKit          3D

 56 59  0  0  0  0  0  0  0  0999 V2000
    9.2549    1.1354   21.1343 O   0  0  0  0  0  0  0  0  0  0  0  0
    9.0103    0.0153   21.5712 C   0  0  0  0  0  0  0  0  0  0  0  0
    7.9293   -0.8479   20.9463 C   0  0  1  0  0  0  0  0  0  0  0  0
    7.1418   -0.1148   19.8877 C   0  0  0  0  0  0  0  0  0  0  0  0
    6.0727    0.7539   20.2442 C   0  0  0  0  0  0  0  0  0  0  0  0
    5.7201    1.0475   21.5874 C   0  0  0  0  0  0  0  0  0  0  0  0
    4.6950    1.9062   21.8748 C   0  0  0  0  0  0  0  0  0  0  0  0
    3.9775    2.5162   20.8562 C   0  0  0  0  0  0  0  0  0  0  0  0
    4.2802    2.2676   19.5480 C   0  0  0  0  0  0  0  0  0  0  0  0
    5.3303    1.3809   19.2055 C   0  0  0  0  0  0  0  0  0  0  0  0
    5.7069    1.0943   17.8724 C   0  0  0  0  0  0  0  0  0  0  0  0
    6.7160    0.2986   17.5419 N   0  0  0  0  0  0  0  0  0  0  0  0
    7.4015   -0.2805   18.5396 C   0  0  0  0  0  0  0  0  0  0  0  0
    9.6647   -0.4998   22.6369 N   0  0  0  0  0  0  0  0  0  0  0  0
   10.5908    0.3262   23.3818 C   0  0  1  0  0  0  0  0  0  0  0  0
   12.0037    0.0196   22.9933 C   0  0  0  0  0  0  0  0  0  0  0  0
   13.2978    0.8288   23.7171 S   0  0  0  0  0  0  0  0  0  0  0  0
   14.4396    0.0043   22.7355 C   0  0  0  0  0  0  0  0  0  0  0  0
   13.8646   -0.8707   21.8825 C   0  0  0  0  0  0  0  0  0  0  0  0
   12.4556   -0.8930   22.0119 C   0  0  0  0  0  0  0  0  0  0  0  0
    9.5062   -1.8840   23.1096 C   0  0  1  0  0  0  0  0  0  0  0  0
    8.5336   -1.9804   24.2749 C   0  0  1  0  0  0  0  0  0  0  0  0
    8.5311   -3.3936   24.8626 C   0  0  1  0  0  0  0  0  0  0  0  0
    9.8394   -3.7034   25.5881 C   0  0  1  0  0  0  0  0  0  0  0  0
    9.8489   -5.0995   26.2118 C   0  0  1  0  0  0  0  0  0  0  0  0
    8.6632   -5.3030   27.1451 C   0  0  1  0  0  0  0  0  0  0  0  0
    7.3559   -5.0132   26.4246 C   0  0  1  0  0  0  0  0  0  0  0  0
    7.3534   -3.6130   25.8119 C   0  0  2  0  0  0  0  0  0  0  0  0
    8.4028   -1.7282   20.4870 H   0  0  0  0  0  0  0  0  0  0  0  0
    7.2379   -1.1742   21.7371 H   0  0  0  0  0  0  0  0  0  0  0  0
    6.2694    0.5859   22.3945 H   0  0  0  0  0  0  0  0  0  0  0  0
    4.4417    2.1112   22.9046 H   0  0  0  0  0  0  0  0  0  0  0  0
    3.1725    3.1938   21.0999 H   0  0  0  0  0  0  0  0  0  0  0  0
    3.7132    2.7518   18.7667 H   0  0  0  0  0  0  0  0  0  0  0  0
    5.1388    1.5507   17.0753 H   0  0  0  0  0  0  0  0  0  0  0  0
    8.2219   -0.9280   18.2678 H   0  0  0  0  0  0  0  0  0  0  0  0
   10.3801    1.3851   23.1711 H   0  0  0  0  0  0  0  0  0  0  0  0
   10.4620    0.1336   24.4571 H   0  0  0  0  0  0  0  0  0  0  0  0
   15.5055    0.1680   22.7941 H   0  0  0  0  0  0  0  0  0  0  0  0
   14.4157   -1.4820   21.1832 H   0  0  0  0  0  0  0  0  0  0  0  0
   11.8043   -1.5299   21.4317 H   0  0  0  0  0  0  0  0  0  0  0  0
    9.1297   -2.5014   22.2807 H   0  0  0  0  0  0  0  0  0  0  0  0
   10.4868   -2.2632   23.4332 H   0  0  0  0  0  0  0  0  0  0  0  0
    8.8331   -1.2654   25.0552 H   0  0  0  0  0  0  0  0  0  0  0  0
    7.5213   -1.7347   23.9214 H   0  0  0  0  0  0  0  0  0  0  0  0
    8.4302   -4.1049   24.0296 H   0  0  0  0  0  0  0  0  0  0  0  0
   10.6672   -3.6339   24.8671 H   0  0  0  0  0  0  0  0  0  0  0  0
    9.9845   -2.9600   26.3858 H   0  0  0  0  0  0  0  0  0  0  0  0
    9.8042   -5.8499   25.4087 H   0  0  0  0  0  0  0  0  0  0  0  0
   10.7798   -5.2291   26.7833 H   0  0  0  0  0  0  0  0  0  0  0  0
    8.6570   -6.3444   27.4993 H   0  0  0  0  0  0  0  0  0  0  0  0
    8.7598   -4.6239   28.0051 H   0  0  0  0  0  0  0  0  0  0  0  0
    7.2171   -5.7542   25.6236 H   0  0  0  0  0  0  0  0  0  0  0  0
    6.5267   -5.0904   27.1432 H   0  0  0  0  0  0  0  0  0  0  0  0
    6.4169   -3.4735   25.2520 H   0  0  0  0  0  0  0  0  0  0  0  0
    7.4097   -2.8719   26.6227 H   0  0  0  0  0  0  0  0  0  0  0  0
  1  2  2  0
  2  3  1  0
  2 14  1  0
  3  4  1  0
  3 29  1  6
  3 30  1  0
  4  5  2  0
  4 13  1  0
  5  6  1  0
  5 10  1  0
  6  7  2  0
  6 31  1  0
  7  8  1  0
  7 32  1  0
  8  9  2  0
  8 33  1  0
  9 10  1  0
  9 34  1  0
 10 11  2  0
 11 12  1  0
 11 35  1  0
 12 13  2  0
 13 36  1  0
 14 15  1  0
 14 21  1  0
 15 16  1  0
 15 37  1  1
 15 38  1  0
 16 17  1  0
 16 20  2  0
 17 18  1  0
 18 19  2  0
 18 39  1  0
 19 20  1  0
 19 40  1  0
 20 41  1  0
 21 22  1  0
 21 42  1  6
 21 43  1  0
 22 23  1  0
 22 44  1  1
 22 45  1  0
 23 24  1  0
 23 28  1  0
 23 46  1  6
 24 25  1  0
 24 47  1  6
 24 48  1  0
 25 26  1  0
 25 49  1  6
 25 50  1  0
 26 27  1  0
 26 51  1  1
 26 52  1  0
 27 28  1  0
 27 53  1  6
 27 54  1  0
 28 55  1  6
 28 56  1  0
M  END
$$$$
