LIG(A-306)
     RDKit          3D

 37 39  0  0  0  0  0  0  0  0999 V2000
    8.9043    1.2446   21.4957 O   0  0  0  0  0  0  0  0  0  0  0  0
    8.8519    0.0895   21.9065 C   0  0  0  0  0  0  0  0  0  0  0  0
    7.8223   -0.8857   21.3321 C   0  0  1  0  0  0  0  0  0  0  0  0
    7.1382   -0.3190   20.1881 N   0  0  0  0  0  0  0  0  0  0  0  0
    6.0253    0.4642   20.1460 C   0  0  0  0  0  0  0  0  0  0  0  0
    5.1889    0.9960   21.1142 C   0  0  0  0  0  0  0  0  0  0  0  0
    4.1650    1.8345   20.6928 C   0  0  0  0  0  0  0  0  0  0  0  0
    3.9746    2.1084   19.3404 C   0  0  0  0  0  0  0  0  0  0  0  0
    4.8081    1.5586   18.3763 C   0  0  0  0  0  0  0  0  0  0  0  0
    5.8530    0.7381   18.7916 C   0  0  0  0  0  0  0  0  0  0  0  0
    6.8586    0.1159   18.0859 N   0  0  0  0  0  0  0  0  0  0  0  0
    7.6199   -0.5141   18.9352 N   0  0  0  0  0  0  0  0  0  0  0  0
    9.6798   -0.3557   22.8818 N   0  0  0  0  0  0  0  0  0  0  0  0
    9.3832   -1.4539   23.7942 C   0  0  1  0  0  0  0  0  0  0  0  0
   10.9450    0.3674   23.1055 C   0  0  1  0  0  0  0  0  0  0  0  0
   12.1110   -0.5160   23.4891 C   0  0  0  0  0  0  0  0  0  0  0  0
   12.6743   -1.3922   22.5716 C   0  0  0  0  0  0  0  0  0  0  0  0
   13.8229   -2.1000   22.8833 C   0  0  0  0  0  0  0  0  0  0  0  0
   14.4193   -1.9475   24.1147 C   0  0  0  0  0  0  0  0  0  0  0  0
   13.8661   -1.0922   25.0374 C   0  0  0  0  0  0  0  0  0  0  0  0
   12.7165   -0.3844   24.7306 C   0  0  0  0  0  0  0  0  0  0  0  0
    8.3366   -1.8071   21.0211 H   0  0  0  0  0  0  0  0  0  0  0  0
    7.0819   -1.1237   22.1100 H   0  0  0  0  0  0  0  0  0  0  0  0
    5.3284    0.7665   22.1603 H   0  0  0  0  0  0  0  0  0  0  0  0
    3.5071    2.2805   21.4241 H   0  0  0  0  0  0  0  0  0  0  0  0
    3.1668    2.7580   19.0377 H   0  0  0  0  0  0  0  0  0  0  0  0
    4.6495    1.7627   17.3278 H   0  0  0  0  0  0  0  0  0  0  0  0
   10.2300   -1.5995   24.4811 H   0  0  0  0  0  0  0  0  0  0  0  0
    8.4786   -1.2154   24.3730 H   0  0  0  0  0  0  0  0  0  0  0  0
    9.2168   -2.3753   23.2170 H   0  0  0  0  0  0  0  0  0  0  0  0
   11.2063    0.8982   22.1782 H   0  0  0  0  0  0  0  0  0  0  0  0
   10.7860    1.0969   23.9133 H   0  0  0  0  0  0  0  0  0  0  0  0
   12.2118   -1.5233   21.6044 H   0  0  0  0  0  0  0  0  0  0  0  0
   14.2526   -2.7744   22.1574 H   0  0  0  0  0  0  0  0  0  0  0  0
   15.3174   -2.4972   24.3545 H   0  0  0  0  0  0  0  0  0  0  0  0
   14.3299   -0.9718   26.0053 H   0  0  0  0  0  0  0  0  0  0  0  0
   12.2857    0.2783   25.4667 H   0  0  0  0  0  0  0  0  0  0  0  0
  1  2  2  0
  2  3  1  0
  2 13  1  0
  3  4  1  0
  3 22  1  6
  3 23  1  0
  4  5  1  0
  4 12  1  0
  5  6  2  0
  5 10  1  0
  6  7  1  0
  6 24  1  0
  7  8  2  0
  7 25  1  0
  8  9  1  0
  8 26  1  0
  9 10  2  0
  9 27  1  0
 10 11  1  0
 11 12  2  0
 13 14  1  0
 13 15  1  0
 14 28  1  1
 14 29  1  0
 14 30  1  0
 15 16  1  0
 15 31  1  6
 15 32  1  0
 16 17  2  0
 16 21  1  0
 17 18  1  0
 17 33  1  0
 18 19  2  0
 18 34  1  0
 19 20  1  0
 19 35  1  0
 20 21  2  0
 20 36  1  0
 21 37  1  0
M  END
$$$$
