LIG(A-305)
     RDKit          3D

 44 46  0  0  0  0  0  0  0  0999 V2000
    6.5166    0.0706   21.0515 N   0  0  0  0  0  0  0  0  0  0  0  0
    7.9366   -0.7785   22.5925 N   0  0  0  0  0  0  0  0  0  0  0  0
   13.9577   -2.0650   24.8809 C   0  0  0  0  0  0  0  0  0  0  0  0
    6.0495    0.3385   19.7526 C   0  0  0  0  0  0  0  0  0  0  0  0
    8.0731    0.5397   25.8154 O   0  0  0  0  0  0  0  0  0  0  0  0
   11.5146   -1.8138   23.5562 C   0  0  0  0  0  0  0  0  0  0  0  0
    4.8865    1.0857   19.6246 C   0  0  0  0  0  0  0  0  0  0  0  0
    9.0877   -0.8966   23.4973 C   0  0  1  0  0  0  0  0  0  0  0  0
    8.5010    1.2626   24.6483 C   0  0  1  0  0  0  0  0  0  0  0  0
    6.8363    0.1624   18.6175 C   0  0  0  0  0  0  0  0  0  0  0  0
    5.4443    1.4545   17.3496 C   0  0  0  0  0  0  0  0  0  0  0  0
   12.9416   -2.9579   25.1341 C   0  0  0  0  0  0  0  0  0  0  0  0
   12.5547   -0.9290   23.3010 C   0  0  0  0  0  0  0  0  0  0  0  0
    9.5749    0.5124   23.8772 C   0  0  2  0  0  0  0  0  0  0  0  0
   11.7256   -2.8338   24.4772 C   0  0  0  0  0  0  0  0  0  0  0  0
   13.7647   -1.0501   23.9649 C   0  0  0  0  0  0  0  0  0  0  0  0
    8.5987   -1.6104   24.7674 C   0  0  1  0  0  0  0  0  0  0  0  0
    7.8156   -0.0516   21.4634 C   0  0  0  0  0  0  0  0  0  0  0  0
    6.5493    0.7033   17.4315 N   0  0  0  0  0  0  0  0  0  0  0  0
    8.7636    0.5033   20.8993 O   0  0  0  0  0  0  0  0  0  0  0  0
   10.2085   -1.7057   22.8063 C   0  0  2  0  0  0  0  0  0  0  0  0
    4.5875    1.6676   18.4076 C   0  0  0  0  0  0  0  0  0  0  0  0
    7.5599   -0.7643   25.4795 C   0  0  2  0  0  0  0  0  0  0  0  0
    5.8172   -0.0442   21.7571 H   0  0  0  0  0  0  0  0  0  0  0  0
    7.1306   -1.3115   22.8497 H   0  0  0  0  0  0  0  0  0  0  0  0
   14.9022   -2.1578   25.3965 H   0  0  0  0  0  0  0  0  0  0  0  0
    4.2226    1.2107   20.4673 H   0  0  0  0  0  0  0  0  0  0  0  0
    7.6342    1.4189   23.9895 H   0  0  0  0  0  0  0  0  0  0  0  0
    8.9039    2.2370   24.9617 H   0  0  0  0  0  0  0  0  0  0  0  0
    7.7261   -0.4441   18.7011 H   0  0  0  0  0  0  0  0  0  0  0  0
    5.2117    1.9187   16.4027 H   0  0  0  0  0  0  0  0  0  0  0  0
   13.0909   -3.7568   25.8454 H   0  0  0  0  0  0  0  0  0  0  0  0
   12.4186   -0.1386   22.5778 H   0  0  0  0  0  0  0  0  0  0  0  0
    9.8173    1.0700   22.9606 H   0  0  0  0  0  0  0  0  0  0  0  0
   10.4754    0.4265   24.5031 H   0  0  0  0  0  0  0  0  0  0  0  0
   10.9333   -3.5381   24.6839 H   0  0  0  0  0  0  0  0  0  0  0  0
   14.5604   -0.3477   23.7651 H   0  0  0  0  0  0  0  0  0  0  0  0
    8.1523   -2.5772   24.4914 H   0  0  0  0  0  0  0  0  0  0  0  0
    9.4524   -1.7795   25.4403 H   0  0  0  0  0  0  0  0  0  0  0  0
    9.8319   -2.7258   22.6402 H   0  0  0  0  0  0  0  0  0  0  0  0
   10.4170   -1.2294   21.8369 H   0  0  0  0  0  0  0  0  0  0  0  0
    3.7027    2.2754   18.2884 H   0  0  0  0  0  0  0  0  0  0  0  0
    6.6861   -0.6449   24.8222 H   0  0  0  0  0  0  0  0  0  0  0  0
    7.2558   -1.2766   26.4042 H   0  0  0  0  0  0  0  0  0  0  0  0
  1  4  1  0
  1 18  1  0
  1 24  1  0
  8  2  1  6
  2 18  1  0
  2 25  1  0
  3 12  2  0
  3 16  1  0
  3 26  1  0
  4  7  2  0
  4 10  1  0
  5  9  1  0
  5 23  1  0
  6 13  1  0
  6 15  2  0
  6 21  1  0
  7 22  1  0
  7 27  1  0
  8 14  1  0
  8 17  1  0
  8 21  1  0
  9 14  1  0
  9 28  1  6
  9 29  1  0
 10 19  2  0
 10 30  1  0
 11 19  1  0
 11 22  2  0
 11 31  1  0
 12 15  1  0
 12 32  1  0
 13 16  2  0
 13 33  1  0
 14 34  1  6
 14 35  1  0
 15 36  1  0
 16 37  1  0
 17 23  1  0
 17 38  1  6
 17 39  1  0
 18 20  2  0
 21 40  1  6
 21 41  1  0
 22 42  1  0
 23 43  1  6
 23 44  1  0
M  END
$$$$
