LIG(A-306)
     RDKit          3D

 50 52  0  0  0  0  0  0  0  0999 V2000
   14.0424   -1.2985   21.5547 Cl  0  0  0  0  0  0  0  0  0  0  0  0
   12.7083   -0.7673   22.5435 C   0  0  0  0  0  0  0  0  0  0  0  0
   12.9382    0.1401   23.5574 C   0  0  0  0  0  0  0  0  0  0  0  0
   11.8683    0.5456   24.3379 C   0  0  0  0  0  0  0  0  0  0  0  0
   10.5914    0.0766   24.0712 C   0  0  0  0  0  0  0  0  0  0  0  0
   11.4434   -1.2552   22.2759 C   0  0  0  0  0  0  0  0  0  0  0  0
   10.3615   -0.8089   23.0272 C   0  0  0  0  0  0  0  0  0  0  0  0
    8.9554   -1.2030   22.6400 C   0  0  1  0  0  0  0  0  0  0  0  0
    8.3317   -0.2200   21.6676 C   0  0  0  0  0  0  0  0  0  0  0  0
    8.8259    0.8868   21.4571 O   0  0  0  0  0  0  0  0  0  0  0  0
    7.2227   -0.6780   21.0458 N   0  0  0  0  0  0  0  0  0  0  0  0
    6.5301   -0.1049   19.9621 C   0  0  0  0  0  0  0  0  0  0  0  0
    6.9232   -0.2458   18.6299 C   0  0  0  0  0  0  0  0  0  0  0  0
    6.3175    0.3327   17.5841 N   0  0  0  0  0  0  0  0  0  0  0  0
    5.2707    1.1038   17.8332 C   0  0  0  0  0  0  0  0  0  0  0  0
    5.3891    0.7141   20.2328 C   0  0  0  0  0  0  0  0  0  0  0  0
    4.7483    1.3441   19.1287 C   0  0  0  0  0  0  0  0  0  0  0  0
    3.6303    2.1759   19.3684 C   0  0  0  0  0  0  0  0  0  0  0  0
    3.1620    2.3692   20.6332 C   0  0  0  0  0  0  0  0  0  0  0  0
    4.8688    0.9324   21.5345 C   0  0  0  0  0  0  0  0  0  0  0  0
    3.7758    1.7459   21.7123 C   0  0  0  0  0  0  0  0  0  0  0  0
    3.1752    2.0704   22.9072 O   0  0  0  0  0  0  0  0  0  0  0  0
    3.3786    1.2084   24.0440 C   0  0  1  0  0  0  0  0  0  0  0  0
    2.3868    1.6041   25.1215 C   0  0  1  0  0  0  0  0  0  0  0  0
    2.7350    2.8003   25.9075 N   0  0  2  0  0  0  0  0  0  0  0  0
    3.2322    2.4253   27.2269 C   0  0  1  0  0  0  0  0  0  0  0  0
    1.5897    3.7034   26.0437 C   0  0  1  0  0  0  0  0  0  0  0  0
   13.9307    0.5256   23.7383 H   0  0  0  0  0  0  0  0  0  0  0  0
   12.0296    1.2300   25.1576 H   0  0  0  0  0  0  0  0  0  0  0  0
    9.7646    0.4045   24.6838 H   0  0  0  0  0  0  0  0  0  0  0  0
   11.2960   -1.9790   21.4881 H   0  0  0  0  0  0  0  0  0  0  0  0
    8.9829   -2.1971   22.1699 H   0  0  0  0  0  0  0  0  0  0  0  0
    8.3361   -1.2439   23.5483 H   0  0  0  0  0  0  0  0  0  0  0  0
    6.8457   -1.5335   21.4009 H   0  0  0  0  0  0  0  0  0  0  0  0
    7.7815   -0.8690   18.4267 H   0  0  0  0  0  0  0  0  0  0  0  0
    4.7833    1.5803   16.9955 H   0  0  0  0  0  0  0  0  0  0  0  0
    3.1413    2.6642   18.5384 H   0  0  0  0  0  0  0  0  0  0  0  0
    2.3088    3.0106   20.7978 H   0  0  0  0  0  0  0  0  0  0  0  0
    5.3325    0.4586   22.3870 H   0  0  0  0  0  0  0  0  0  0  0  0
    3.2127    0.1610   23.7516 H   0  0  0  0  0  0  0  0  0  0  0  0
    4.4052    1.3256   24.4214 H   0  0  0  0  0  0  0  0  0  0  0  0
    1.4175    1.7903   24.6357 H   0  0  0  0  0  0  0  0  0  0  0  0
    2.2912    0.7586   25.8187 H   0  0  0  0  0  0  0  0  0  0  0  0
    3.4623    3.2884   25.4251 H   0  0  0  0  0  0  0  0  0  0  0  0
    3.4855    3.3324   27.7953 H   0  0  0  0  0  0  0  0  0  0  0  0
    2.4559    1.8608   27.7644 H   0  0  0  0  0  0  0  0  0  0  0  0
    4.1300    1.7995   27.1161 H   0  0  0  0  0  0  0  0  0  0  0  0
    1.8842    4.5833   26.6344 H   0  0  0  0  0  0  0  0  0  0  0  0
    1.2568    4.0262   25.0462 H   0  0  0  0  0  0  0  0  0  0  0  0
    0.7677    3.1787   26.5525 H   0  0  0  0  0  0  0  0  0  0  0  0
  1  2  1  0
  2  3  2  0
  2  6  1  0
  3  4  1  0
  3 28  1  0
  4  5  2  0
  4 29  1  0
  5  7  1  0
  5 30  1  0
  6  7  2  0
  6 31  1  0
  7  8  1  0
  8  9  1  0
  8 32  1  6
  8 33  1  0
  9 10  2  0
  9 11  1  0
 11 12  1  0
 11 34  1  0
 12 13  2  0
 12 16  1  0
 13 14  1  0
 13 35  1  0
 14 15  2  0
 15 17  1  0
 15 36  1  0
 16 17  2  0
 16 20  1  0
 17 18  1  0
 18 19  2  0
 18 37  1  0
 19 21  1  0
 19 38  1  0
 20 21  2  0
 20 39  1  0
 21 22  1  0
 22 23  1  0
 23 24  1  0
 23 40  1  6
 23 41  1  0
 24 25  1  0
 24 42  1  6
 24 43  1  0
 25 26  1  0
 25 27  1  0
 25 44  1  6
 26 45  1  1
 26 46  1  0
 26 47  1  0
 27 48  1  1
 27 49  1  0
 27 50  1  0
M  CHG  1  25   1
M  END
$$$$
