LIG(A-306)
     RDKit          3D

 41 45  0  0  1  0  0  0  0  0999 V2000
   -9.7332    1.0420  -21.0229 O   0  0  0  0  0  0  0  0  0  0  0  0
   -9.3225   -0.0216  -21.4474 C   0  0  0  0  0  0  0  0  0  0  0  0
   -9.8546   -0.7806  -22.6860 C   0  0  2  0  0  0  0  0  0  0  0  0
   -9.2692   -0.0769  -23.9316 C   0  0  1  0  0  0  0  0  0  0  0  0
  -10.3241    0.4212  -24.9042 C   0  0  1  0  0  0  0  0  0  0  0  0
  -11.4640    1.0004  -24.2500 O   0  0  0  0  0  0  0  0  0  0  0  0
  -11.3770   -0.8348  -22.6846 C   0  0  0  0  0  0  0  0  0  0  0  0
  -12.0907    0.0987  -23.4317 C   0  0  0  0  0  0  0  0  0  0  0  0
  -13.4749    0.1343  -23.4257 C   0  0  0  0  0  0  0  0  0  0  0  0
  -14.1673   -0.7818  -22.6545 C   0  0  0  0  0  0  0  0  0  0  0  0
  -12.0852   -1.7647  -21.9258 C   0  0  0  0  0  0  0  0  0  0  0  0
  -13.4659   -1.6995  -21.9005 C   0  0  0  0  0  0  0  0  0  0  0  0
  -14.3342   -2.7069  -20.7730 Cl  0  0  0  0  0  0  0  0  0  0  0  0
   -8.3474   -0.8363  -20.8692 N   0  0  0  0  0  0  0  0  0  0  0  0
   -8.3100   -2.0942  -21.4835 C   0  0  0  0  0  0  0  0  0  0  0  0
   -7.5561   -3.0102  -21.1810 O   0  0  0  0  0  0  0  0  0  0  0  0
   -9.2379   -2.0867  -22.4726 N   0  0  0  0  0  0  0  0  0  0  0  0
   -7.4412   -0.3939  -19.8301 C   0  0  0  0  0  0  0  0  0  0  0  0
   -6.3558    0.4689  -20.1734 C   0  0  0  0  0  0  0  0  0  0  0  0
   -5.9007    0.6989  -21.4982 C   0  0  0  0  0  0  0  0  0  0  0  0
   -4.8411    1.5301  -21.7461 C   0  0  0  0  0  0  0  0  0  0  0  0
   -4.1960    2.1850  -20.7035 C   0  0  0  0  0  0  0  0  0  0  0  0
   -4.5993    2.0001  -19.4110 C   0  0  0  0  0  0  0  0  0  0  0  0
   -5.6784    1.1305  -19.1077 C   0  0  0  0  0  0  0  0  0  0  0  0
   -6.1195    0.8730  -17.7836 C   0  0  0  0  0  0  0  0  0  0  0  0
   -7.1276    0.0669  -17.4764 N   0  0  0  0  0  0  0  0  0  0  0  0
   -7.7654   -0.5419  -18.4853 C   0  0  0  0  0  0  0  0  0  0  0  0
   -8.6726    0.7841  -23.5957 H   0  0  0  0  0  0  0  0  0  0  0  0
   -8.6191   -0.7899  -24.4598 H   0  0  0  0  0  0  0  0  0  0  0  0
   -9.8691    1.1828  -25.5546 H   0  0  0  0  0  0  0  0  0  0  0  0
  -10.6649   -0.4271  -25.5158 H   0  0  0  0  0  0  0  0  0  0  0  0
  -14.0064    0.8671  -24.0147 H   0  0  0  0  0  0  0  0  0  0  0  0
  -15.2472   -0.7786  -22.6430 H   0  0  0  0  0  0  0  0  0  0  0  0
  -11.5627   -2.5258  -21.3652 H   0  0  0  0  0  0  0  0  0  0  0  0
   -9.4771   -2.8986  -23.0050 H   0  0  0  0  0  0  0  0  0  0  0  0
   -6.3979    0.2107  -22.3234 H   0  0  0  0  0  0  0  0  0  0  0  0
   -4.5034    1.6783  -22.7611 H   0  0  0  0  0  0  0  0  0  0  0  0
   -3.3688    2.8459  -20.9167 H   0  0  0  0  0  0  0  0  0  0  0  0
   -4.0916    2.5209  -18.6127 H   0  0  0  0  0  0  0  0  0  0  0  0
   -5.6012    1.3648  -16.9738 H   0  0  0  0  0  0  0  0  0  0  0  0
   -8.5897   -1.1938  -18.2369 H   0  0  0  0  0  0  0  0  0  0  0  0
  1  2  2  0
  2  3  1  0
  2 14  1  0
  3  4  1  0
  3  7  1  0
  3 17  1  1
  4  5  1  0
  4 28  1  1
  4 29  1  0
  5  6  1  0
  5 30  1  6
  5 31  1  0
  6  8  1  0
  7  8  2  0
  7 11  1  0
  8  9  1  0
  9 10  2  0
  9 32  1  0
 10 12  1  0
 10 33  1  0
 11 12  2  0
 11 34  1  0
 12 13  1  0
 14 15  1  0
 14 18  1  0
 15 16  2  0
 15 17  1  0
 17 35  1  0
 18 19  2  0
 18 27  1  0
 19 20  1  0
 19 24  1  0
 20 21  2  0
 20 36  1  0
 21 22  1  0
 21 37  1  0
 22 23  2  0
 22 38  1  0
 23 24  1  0
 23 39  1  0
 24 25  2  0
 25 26  1  0
 25 40  1  0
 26 27  2  0
 27 41  1  0
M  END
$$$$
