LIG(A-305)
     RDKit          3D

 31 33  0  0  0  0  0  0  0  0999 V2000
    8.9322    0.8309   21.1000 O   0  0  0  0  0  0  0  0  0  0  0  0
    8.3742   -0.2191   21.4141 C   0  0  0  0  0  0  0  0  0  0  0  0
    8.8622   -1.0630   22.5791 C   0  0  1  0  0  0  0  0  0  0  0  0
   10.3242   -0.7931   22.8571 C   0  0  0  0  0  0  0  0  0  0  0  0
   10.7102    0.1380   23.8140 C   0  0  0  0  0  0  0  0  0  0  0  0
   12.0452    0.4819   23.9710 C   0  0  0  0  0  0  0  0  0  0  0  0
   13.0152   -0.1021   23.1720 C   0  0  0  0  0  0  0  0  0  0  0  0
   11.3041   -1.4031   22.0831 C   0  0  0  0  0  0  0  0  0  0  0  0
   12.6282   -1.0482   22.2491 C   0  0  0  0  0  0  0  0  0  0  0  0
   13.8421   -1.8453   21.2811 Cl  0  0  0  0  0  0  0  0  0  0  0  0
    7.3002   -0.7121   20.7651 N   0  0  0  0  0  0  0  0  0  0  0  0
    6.6512   -0.0451   19.6991 C   0  0  0  0  0  0  0  0  0  0  0  0
    5.5132    0.7249   19.9510 C   0  0  0  0  0  0  0  0  0  0  0  0
    4.8702    1.0180   21.1270 N   0  0  0  0  0  0  0  0  0  0  0  0
    3.8692    1.8660   20.8070 C   0  0  0  0  0  0  0  0  0  0  0  0
    3.8062    2.1570   19.5210 N   0  0  0  0  0  0  0  0  0  0  0  0
    4.8552    1.4379   18.9440 C   0  0  0  0  0  0  0  0  0  0  0  0
    5.3982    1.3158   17.6730 C   0  0  0  0  0  0  0  0  0  0  0  0
    6.4932    0.5998   17.3850 N   0  0  0  0  0  0  0  0  0  0  0  0
    7.0961   -0.0582   18.3831 C   0  0  0  0  0  0  0  0  0  0  0  0
    8.2727   -0.8179   23.4749 H   0  0  0  0  0  0  0  0  0  0  0  0
    8.7314   -2.1275   22.3340 H   0  0  0  0  0  0  0  0  0  0  0  0
    9.9626    0.5989   24.4425 H   0  0  0  0  0  0  0  0  0  0  0  0
   12.3295    1.2076   24.7186 H   0  0  0  0  0  0  0  0  0  0  0  0
   14.0533    0.1787   23.2711 H   0  0  0  0  0  0  0  0  0  0  0  0
   11.0311   -2.1522   21.3545 H   0  0  0  0  0  0  0  0  0  0  0  0
    6.9416   -1.5999   21.0536 H   0  0  0  0  0  0  0  0  0  0  0  0
    5.0971    0.6730   22.0378 H   0  0  0  0  0  0  0  0  0  0  0  0
    3.1828    2.2695   21.5367 H   0  0  0  0  0  0  0  0  0  0  0  0
    4.9056    1.8321   16.8624 H   0  0  0  0  0  0  0  0  0  0  0  0
    7.9806   -0.6330   18.1514 H   0  0  0  0  0  0  0  0  0  0  0  0
  1  2  2  0
  2  3  1  0
  2 11  1  0
  3  4  1  0
  3 21  1  1
  3 22  1  0
  4  5  2  0
  4  8  1  0
  5  6  1  0
  5 23  1  0
  6  7  2  0
  6 24  1  0
  7  9  1  0
  7 25  1  0
  8  9  2  0
  8 26  1  0
  9 10  1  0
 11 12  1  0
 11 27  1  0
 12 13  2  0
 12 20  1  0
 13 14  1  0
 13 17  1  0
 14 15  1  0
 14 28  1  0
 15 16  2  0
 15 29  1  0
 16 17  1  0
 17 18  2  0
 18 19  1  0
 18 30  1  0
 19 20  2  0
 20 31  1  0
M  END
$$$$
