LIG(A-306)
     RDKit          3D

 43 46  0  0  1  0  0  0  0  0999 V2000
    9.0521    1.0084   21.0916 O   0  0  0  0  0  0  0  0  0  0  0  0
    8.5113    0.0223   21.5676 C   0  0  0  0  0  0  0  0  0  0  0  0
    9.1005   -0.6736   22.8205 C   0  0  1  0  0  0  0  0  0  0  0  0
   10.5715   -0.3894   23.0324 C   0  0  0  0  0  0  0  0  0  0  0  0
   11.5365   -0.9522   22.1994 C   0  0  0  0  0  0  0  0  0  0  0  0
   12.8484   -0.5210   22.2613 C   0  0  0  0  0  0  0  0  0  0  0  0
   14.0235   -1.2408   21.2082 Cl  0  0  0  0  0  0  0  0  0  0  0  0
   13.2173    0.4750   23.1492 C   0  0  0  0  0  0  0  0  0  0  0  0
   14.8723    0.9773   23.2701 Cl  0  0  0  0  0  0  0  0  0  0  0  0
   12.2793    1.0549   23.9823 C   0  0  0  0  0  0  0  0  0  0  0  0
   10.9714    0.6137   23.9194 C   0  0  0  0  0  0  0  0  0  0  0  0
   10.1083    1.1995   24.8165 O   0  0  0  0  0  0  0  0  0  0  0  0
    8.7183    1.2003   24.4316 C   0  0  1  0  0  0  0  0  0  0  0  0
    8.2435   -0.1668   23.9886 C   0  0  2  0  0  0  0  0  0  0  0  0
    8.9097   -2.0526   22.5315 O   0  0  0  0  0  0  0  0  0  0  0  0
    9.1449   -2.9776   23.6025 C   0  0  1  0  0  0  0  0  0  0  0  0
    7.3703   -0.5159   21.0907 N   0  0  0  0  0  0  0  0  0  0  0  0
    6.6472   -0.0310   19.9777 C   0  0  0  0  0  0  0  0  0  0  0  0
    5.5291    0.8209   20.2208 C   0  0  0  0  0  0  0  0  0  0  0  0
    5.0671    1.1618   21.5189 C   0  0  0  0  0  0  0  0  0  0  0  0
    3.9920    1.9876   21.6870 C   0  0  0  0  0  0  0  0  0  0  0  0
    3.3218    2.5105   20.5880 C   0  0  0  0  0  0  0  0  0  0  0  0
    3.7218    2.2036   19.3180 C   0  0  0  0  0  0  0  0  0  0  0  0
    4.8369    1.3568   19.0979 C   0  0  0  0  0  0  0  0  0  0  0  0
    5.3068    1.0129   17.8069 C   0  0  0  0  0  0  0  0  0  0  0  0
    6.3440    0.2150   17.5818 N   0  0  0  0  0  0  0  0  0  0  0  0
    6.9881   -0.2819   18.6497 C   0  0  0  0  0  0  0  0  0  0  0  0
   11.2582   -1.7288   21.5023 H   0  0  0  0  0  0  0  0  0  0  0  0
   12.5632    1.8381   24.6696 H   0  0  0  0  0  0  0  0  0  0  0  0
    8.1134    1.5232   25.2917 H   0  0  0  0  0  0  0  0  0  0  0  0
    8.5818    1.9084   23.6009 H   0  0  0  0  0  0  0  0  0  0  0  0
    8.3248   -0.8700   24.8306 H   0  0  0  0  0  0  0  0  0  0  0  0
    7.1938   -0.0999   23.6667 H   0  0  0  0  0  0  0  0  0  0  0  0
    8.9632   -4.0031   23.2486 H   0  0  0  0  0  0  0  0  0  0  0  0
   10.1869   -2.8868   23.9431 H   0  0  0  0  0  0  0  0  0  0  0  0
    8.4653   -2.7521   24.4375 H   0  0  0  0  0  0  0  0  0  0  0  0
    7.0080   -1.3204   21.5612 H   0  0  0  0  0  0  0  0  0  0  0  0
    5.5726    0.7627   22.3858 H   0  0  0  0  0  0  0  0  0  0  0  0
    3.6597    2.2364   22.6840 H   0  0  0  0  0  0  0  0  0  0  0  0
    2.4767    3.1658   20.7390 H   0  0  0  0  0  0  0  0  0  0  0  0
    3.1834    2.6098   18.4744 H   0  0  0  0  0  0  0  0  0  0  0  0
    4.7898    1.4250   16.9529 H   0  0  0  0  0  0  0  0  0  0  0  0
    7.8356   -0.9255   18.4657 H   0  0  0  0  0  0  0  0  0  0  0  0
  1  2  2  0
  2  3  1  0
  2 17  1  0
  3  4  1  0
  3 14  1  0
  3 15  1  6
  4  5  2  0
  4 11  1  0
  5  6  1  0
  5 28  1  0
  6  7  1  0
  6  8  2  0
  8  9  1  0
  8 10  1  0
 10 11  2  0
 10 29  1  0
 11 12  1  0
 12 13  1  0
 13 14  1  0
 13 30  1  1
 13 31  1  0
 14 32  1  1
 14 33  1  0
 15 16  1  0
 16 34  1  6
 16 35  1  0
 16 36  1  0
 17 18  1  0
 17 37  1  0
 18 19  2  0
 18 27  1  0
 19 20  1  0
 19 24  1  0
 20 21  2  0
 20 38  1  0
 21 22  1  0
 21 39  1  0
 22 23  2  0
 22 40  1  0
 23 24  1  0
 23 41  1  0
 24 25  2  0
 25 26  1  0
 25 42  1  0
 26 27  2  0
 27 43  1  0
M  END
$$$$
