LIG(A-306)
     RDKit          3D

 64 67  0  0  1  0  0  0  0  0999 V2000
   13.7077   -1.3021   21.6426 Cl  0  0  0  0  0  0  0  0  0  0  0  0
   12.4397   -0.6225   22.6160 C   0  0  0  0  0  0  0  0  0  0  0  0
   12.7334    0.2254   23.6786 C   0  0  0  0  0  0  0  0  0  0  0  0
   14.3599    0.7352   23.9996 Cl  0  0  0  0  0  0  0  0  0  0  0  0
   11.7196    0.6895   24.4890 C   0  0  0  0  0  0  0  0  0  0  0  0
   10.4119    0.3316   24.2256 C   0  0  0  0  0  0  0  0  0  0  0  0
   11.1270   -0.9695   22.3396 C   0  0  0  0  0  0  0  0  0  0  0  0
   10.0951   -0.4865   23.1449 C   0  0  0  0  0  0  0  0  0  0  0  0
    8.6293   -0.8210   22.8286 C   0  0  1  0  0  0  0  0  0  0  0  0
    8.5215   -2.3054   22.4616 C   0  0  1  0  0  0  0  0  0  0  0  0
    7.7932   -0.5763   24.0141 N   0  0  0  0  0  0  0  0  0  0  0  0
    7.3628    0.5979   24.5076 C   0  0  0  0  0  0  0  0  0  0  0  0
    7.3642    1.6501   23.8723 O   0  0  0  0  0  0  0  0  0  0  0  0
    6.9385    0.5969   25.9721 C   0  0  2  0  0  0  0  0  0  0  0  0
    5.5603    0.1931   26.0732 O   0  0  0  0  0  0  0  0  0  0  0  0
    5.1059    0.2035   27.4396 C   0  0  1  0  0  0  0  0  0  0  0  0
    5.2532    1.5864   28.0372 C   0  0  1  0  0  0  0  0  0  0  0  0
    7.1228    1.9790   26.5826 C   0  0  1  0  0  0  0  0  0  0  0  0
    6.6674    1.9956   27.9831 N   0  0  1  0  0  0  0  0  0  0  0  0
    7.1012    3.1691   28.7685 C   0  0  1  0  0  0  0  0  0  0  0  0
    6.5533    4.4880   28.2442 C   0  0  1  0  0  0  0  0  0  0  0  0
    6.8323    2.9935   30.2539 C   0  0  1  0  0  0  0  0  0  0  0  0
    8.1643    0.1132   21.6645 C   0  0  0  0  0  0  0  0  0  0  0  0
    8.4372    1.3077   21.6610 O   0  0  0  0  0  0  0  0  0  0  0  0
    7.5201   -0.4880   20.6439 N   0  0  0  0  0  0  0  0  0  0  0  0
    6.5513   -0.0694   19.7065 C   0  0  0  0  0  0  0  0  0  0  0  0
    5.4921    0.8319   20.0603 C   0  0  0  0  0  0  0  0  0  0  0  0
    5.0513    1.0521   21.3905 C   0  0  0  0  0  0  0  0  0  0  0  0
    3.9542    1.8237   21.6521 C   0  0  0  0  0  0  0  0  0  0  0  0
    3.2470    2.4223   20.6224 C   0  0  0  0  0  0  0  0  0  0  0  0
    3.6337    2.2512   19.3249 C   0  0  0  0  0  0  0  0  0  0  0  0
    4.7578    1.4483   19.0064 C   0  0  0  0  0  0  0  0  0  0  0  0
    5.1347    1.1500   17.6807 C   0  0  0  0  0  0  0  0  0  0  0  0
    6.0998    0.3087   17.3507 N   0  0  0  0  0  0  0  0  0  0  0  0
    6.7671   -0.2842   18.3465 C   0  0  0  0  0  0  0  0  0  0  0  0
   11.9471    1.3312   25.3274 H   0  0  0  0  0  0  0  0  0  0  0  0
    9.6225    0.6922   24.8685 H   0  0  0  0  0  0  0  0  0  0  0  0
   10.9028   -1.6131   21.5018 H   0  0  0  0  0  0  0  0  0  0  0  0
    7.4740   -2.5521   22.2338 H   0  0  0  0  0  0  0  0  0  0  0  0
    9.1466   -2.5115   21.5803 H   0  0  0  0  0  0  0  0  0  0  0  0
    8.8667   -2.9181   23.3074 H   0  0  0  0  0  0  0  0  0  0  0  0
    7.5076   -1.3906   24.5195 H   0  0  0  0  0  0  0  0  0  0  0  0
    7.5738   -0.1150   26.5195 H   0  0  0  0  0  0  0  0  0  0  0  0
    4.0472   -0.0936   27.4713 H   0  0  0  0  0  0  0  0  0  0  0  0
    5.7044   -0.5095   28.0255 H   0  0  0  0  0  0  0  0  0  0  0  0
    4.6425    2.3003   27.4649 H   0  0  0  0  0  0  0  0  0  0  0  0
    4.9153    1.5716   29.0839 H   0  0  0  0  0  0  0  0  0  0  0  0
    8.1881    2.2503   26.5463 H   0  0  0  0  0  0  0  0  0  0  0  0
    6.5383    2.7098   26.0044 H   0  0  0  0  0  0  0  0  0  0  0  0
    7.1555    1.2310   28.4041 H   0  0  0  0  0  0  0  0  0  0  0  0
    8.1944    3.2303   28.6623 H   0  0  0  0  0  0  0  0  0  0  0  0
    6.9161    5.3129   28.8750 H   0  0  0  0  0  0  0  0  0  0  0  0
    6.8935    4.6408   27.2094 H   0  0  0  0  0  0  0  0  0  0  0  0
    5.4539    4.4639   28.2690 H   0  0  0  0  0  0  0  0  0  0  0  0
    7.1703    3.8886   30.7966 H   0  0  0  0  0  0  0  0  0  0  0  0
    5.7537    2.8517   30.4168 H   0  0  0  0  0  0  0  0  0  0  0  0
    7.3779    2.1128   30.6236 H   0  0  0  0  0  0  0  0  0  0  0  0
    7.7887   -1.4439   20.5243 H   0  0  0  0  0  0  0  0  0  0  0  0
    5.5917    0.6024   22.2103 H   0  0  0  0  0  0  0  0  0  0  0  0
    3.6349    1.9686   22.6737 H   0  0  0  0  0  0  0  0  0  0  0  0
    2.3827    3.0293   20.8481 H   0  0  0  0  0  0  0  0  0  0  0  0
    3.0783    2.7320   18.5333 H   0  0  0  0  0  0  0  0  0  0  0  0
    4.5994    1.6414   16.8818 H   0  0  0  0  0  0  0  0  0  0  0  0
    7.5385   -0.9892   18.0737 H   0  0  0  0  0  0  0  0  0  0  0  0
  1  2  1  0
  2  3  2  0
  2  7  1  0
  3  4  1  0
  3  5  1  0
  5  6  2  0
  5 36  1  0
  6  8  1  0
  6 37  1  0
  7  8  2  0
  7 38  1  0
  8  9  1  0
  9 10  1  0
  9 11  1  1
  9 23  1  0
 10 39  1  6
 10 40  1  0
 10 41  1  0
 11 12  1  0
 11 42  1  0
 12 13  2  0
 12 14  1  0
 14 15  1  0
 14 18  1  0
 14 43  1  1
 15 16  1  0
 16 17  1  0
 16 44  1  6
 16 45  1  0
 17 19  1  0
 17 46  1  6
 17 47  1  0
 18 19  1  0
 18 48  1  1
 18 49  1  0
 19 20  1  0
 19 50  1  1
 20 21  1  0
 20 22  1  0
 20 51  1  1
 21 52  1  1
 21 53  1  0
 21 54  1  0
 22 55  1  1
 22 56  1  0
 22 57  1  0
 23 24  2  0
 23 25  1  0
 25 26  1  0
 25 58  1  0
 26 27  2  0
 26 35  1  0
 27 28  1  0
 27 32  1  0
 28 29  2  0
 28 59  1  0
 29 30  1  0
 29 60  1  0
 30 31  2  0
 30 61  1  0
 31 32  1  0
 31 62  1  0
 32 33  2  0
 33 34  1  0
 33 63  1  0
 34 35  2  0
 35 64  1  0
M  CHG  1  19   1
M  END
$$$$
