LIG(A-306)
     RDKit          3D

 38 41  0  0  1  0  0  0  0  0999 V2000
    9.2309    1.4713   21.2144 O   0  0  0  0  0  0  0  0  0  0  0  0
    8.8314    0.3914   21.6216 C   0  0  0  0  0  0  0  0  0  0  0  0
    9.4321   -0.4467   22.7459 C   0  0  2  0  0  0  0  0  0  0  0  0
   10.9377   -0.3133   22.9087 C   0  0  0  0  0  0  0  0  0  0  0  0
   11.4692    0.6014   23.8094 C   0  0  0  0  0  0  0  0  0  0  0  0
   12.8397    0.8051   23.8898 C   0  0  0  0  0  0  0  0  0  0  0  0
   13.7007    0.0991   23.0626 C   0  0  0  0  0  0  0  0  0  0  0  0
   11.8037   -1.0492   22.1036 C   0  0  0  0  0  0  0  0  0  0  0  0
   13.1641   -0.8176   22.1759 C   0  0  0  0  0  0  0  0  0  0  0  0
   14.2214   -1.6446   21.0623 Cl  0  0  0  0  0  0  0  0  0  0  0  0
    7.7441   -0.2856   21.1446 N   0  0  0  0  0  0  0  0  0  0  0  0
    7.5531   -1.5909   21.7969 C   0  0  1  0  0  0  0  0  0  0  0  0
    8.9256   -1.8696   22.4027 C   0  0  2  0  0  0  0  0  0  0  0  0
    6.8703    0.1812   20.1120 C   0  0  0  0  0  0  0  0  0  0  0  0
    5.7154    0.9749   20.3907 C   0  0  0  0  0  0  0  0  0  0  0  0
    5.3011    1.3443   21.6998 C   0  0  0  0  0  0  0  0  0  0  0  0
    4.2081    2.1437   21.8905 C   0  0  0  0  0  0  0  0  0  0  0  0
    3.4803    2.6206   20.8079 C   0  0  0  0  0  0  0  0  0  0  0  0
    3.8424    2.3002   19.5296 C   0  0  0  0  0  0  0  0  0  0  0  0
    4.9635    1.4676   19.2850 C   0  0  0  0  0  0  0  0  0  0  0  0
    5.4057    1.1273   17.9838 C   0  0  0  0  0  0  0  0  0  0  0  0
    6.4795    0.3956   17.7288 N   0  0  0  0  0  0  0  0  0  0  0  0
    7.1793   -0.0576   18.7772 C   0  0  0  0  0  0  0  0  0  0  0  0
    8.9577   -0.1403   23.6899 H   0  0  0  0  0  0  0  0  0  0  0  0
   10.8080    1.1606   24.4547 H   0  0  0  0  0  0  0  0  0  0  0  0
   13.2373    1.5158   24.5991 H   0  0  0  0  0  0  0  0  0  0  0  0
   14.7674    0.2614   23.1096 H   0  0  0  0  0  0  0  0  0  0  0  0
   11.4146   -1.7959   21.4272 H   0  0  0  0  0  0  0  0  0  0  0  0
    6.7796   -1.5346   22.5770 H   0  0  0  0  0  0  0  0  0  0  0  0
    7.2790   -2.3639   21.0639 H   0  0  0  0  0  0  0  0  0  0  0  0
    8.8430   -2.4915   23.3064 H   0  0  0  0  0  0  0  0  0  0  0  0
    9.5882   -2.3637   21.6769 H   0  0  0  0  0  0  0  0  0  0  0  0
    5.8570    0.9890   22.5548 H   0  0  0  0  0  0  0  0  0  0  0  0
    3.9076    2.4070   22.8938 H   0  0  0  0  0  0  0  0  0  0  0  0
    2.6198    3.2508   20.9780 H   0  0  0  0  0  0  0  0  0  0  0  0
    3.2697    2.6845   18.6986 H   0  0  0  0  0  0  0  0  0  0  0  0
    4.8296    1.4880   17.1445 H   0  0  0  0  0  0  0  0  0  0  0  0
    8.0536   -0.6565   18.5694 H   0  0  0  0  0  0  0  0  0  0  0  0
  1  2  2  0
  2  3  1  0
  2 11  1  0
  3  4  1  0
  3 13  1  0
  3 24  1  1
  4  5  2  0
  4  8  1  0
  5  6  1  0
  5 25  1  0
  6  7  2  0
  6 26  1  0
  7  9  1  0
  7 27  1  0
  8  9  2  0
  8 28  1  0
  9 10  1  0
 11 12  1  0
 11 14  1  0
 12 13  1  0
 12 29  1  1
 12 30  1  0
 13 31  1  1
 13 32  1  0
 14 15  2  0
 14 23  1  0
 15 16  1  0
 15 20  1  0
 16 17  2  0
 16 33  1  0
 17 18  1  0
 17 34  1  0
 18 19  2  0
 18 35  1  0
 19 20  1  0
 19 36  1  0
 20 21  2  0
 21 22  1  0
 21 37  1  0
 22 23  2  0
 23 38  1  0
M  END
$$$$
