LIG(A-306)
     RDKit          3D

 47 50  0  0  1  0  0  0  0  0999 V2000
    9.7176    1.1322   21.1212 O   0  0  0  0  0  0  0  0  0  0  0  0
    9.2096    0.2072   21.7393 C   0  0  0  0  0  0  0  0  0  0  0  0
    9.9547   -0.4518   22.9323 C   0  0  1  0  0  0  0  0  0  0  0  0
   11.4557   -0.1387   22.9362 C   0  0  0  0  0  0  0  0  0  0  0  0
   12.2706   -0.8507   22.0552 C   0  0  0  0  0  0  0  0  0  0  0  0
   13.5906   -0.4787   21.8851 C   0  0  0  0  0  0  0  0  0  0  0  0
   14.5466   -1.2987   20.6761 Cl  0  0  0  0  0  0  0  0  0  0  0  0
   14.1556    0.5593   22.6031 C   0  0  0  0  0  0  0  0  0  0  0  0
   13.3776    1.2523   23.5161 C   0  0  0  0  0  0  0  0  0  0  0  0
   12.0427    0.9053   23.6762 C   0  0  0  0  0  0  0  0  0  0  0  0
   11.1027    1.8003   24.8572 S   0  0  2  0  0  0  0  0  0  0  0  0
   11.3856    3.1973   24.7321 O   0  0  0  0  0  0  0  0  0  0  0  0
   11.2448    1.1763   26.1402 O   0  0  0  0  0  0  0  0  0  0  0  0
    9.5767    1.5472   24.3472 N   0  0  0  0  0  0  0  0  0  0  0  0
    9.2477    0.1242   24.1843 C   0  0  2  0  0  0  0  0  0  0  0  0
    9.7697   -1.9838   22.9243 C   0  0  1  0  0  0  0  0  0  0  0  0
    7.9936   -0.2979   21.4263 N   0  0  0  0  0  0  0  0  0  0  0  0
    7.1716    0.1271   20.3494 C   0  0  0  0  0  0  0  0  0  0  0  0
    5.9905    0.8741   20.5104 C   0  0  0  0  0  0  0  0  0  0  0  0
    5.5786    1.3591   21.8844 C   0  0  1  0  0  0  0  0  0  0  0  0
    4.1826    1.9681   21.9384 C   0  0  1  0  0  0  0  0  0  0  0  0
    3.8815    2.8270   20.7254 C   0  0  1  0  0  0  0  0  0  0  0  0
    3.9765    2.0080   19.4575 C   0  0  1  0  0  0  0  0  0  0  0  0
    5.2575    1.2170   19.3624 C   0  0  0  0  0  0  0  0  0  0  0  0
    5.7534    0.8180   18.1344 C   0  0  0  0  0  0  0  0  0  0  0  0
    6.8865    0.1331   17.9624 N   0  0  0  0  0  0  0  0  0  0  0  0
    7.5745   -0.2109   19.0584 C   0  0  0  0  0  0  0  0  0  0  0  0
   11.8705   -1.6910   21.5072 H   0  0  0  0  0  0  0  0  0  0  0  0
   15.1913    0.8267   22.4537 H   0  0  0  0  0  0  0  0  0  0  0  0
   13.8056    2.0551   24.0981 H   0  0  0  0  0  0  0  0  0  0  0  0
    9.1709    2.2056   23.7133 H   0  0  0  0  0  0  0  0  0  0  0  0
    9.5798   -0.4291   25.0751 H   0  0  0  0  0  0  0  0  0  0  0  0
    8.1593    0.0144   24.0689 H   0  0  0  0  0  0  0  0  0  0  0  0
   10.3067   -2.4230   23.7780 H   0  0  0  0  0  0  0  0  0  0  0  0
    8.6991   -2.2241   23.0019 H   0  0  0  0  0  0  0  0  0  0  0  0
   10.1713   -2.3966   21.9871 H   0  0  0  0  0  0  0  0  0  0  0  0
    7.6433   -1.0350   22.0043 H   0  0  0  0  0  0  0  0  0  0  0  0
    5.6091    0.5040   22.5757 H   0  0  0  0  0  0  0  0  0  0  0  0
    6.3006    2.1215   22.2121 H   0  0  0  0  0  0  0  0  0  0  0  0
    3.4436    1.1547   21.9881 H   0  0  0  0  0  0  0  0  0  0  0  0
    4.1033    2.5911   22.8415 H   0  0  0  0  0  0  0  0  0  0  0  0
    2.8648    3.2370   20.8159 H   0  0  0  0  0  0  0  0  0  0  0  0
    4.6068    3.6526   20.6779 H   0  0  0  0  0  0  0  0  0  0  0  0
    3.1288    1.3076   19.4280 H   0  0  0  0  0  0  0  0  0  0  0  0
    3.9198    2.6887   18.5952 H   0  0  0  0  0  0  0  0  0  0  0  0
    5.1849    1.0786   17.2539 H   0  0  0  0  0  0  0  0  0  0  0  0
    8.4857   -0.7776   18.9362 H   0  0  0  0  0  0  0  0  0  0  0  0
  1  2  2  0
  3  2  1  6
  2 17  1  0
  3  4  1  0
  3 15  1  0
  3 16  1  0
  4  5  2  0
  4 10  1  0
  5  6  1  0
  5 28  1  0
  6  7  1  0
  6  8  2  0
  8  9  1  0
  8 29  1  0
  9 10  2  0
  9 30  1  0
 10 11  1  0
 11 12  2  0
 11 13  2  0
 11 14  1  6
 14 15  1  0
 14 31  1  0
 15 32  1  1
 15 33  1  0
 16 34  1  1
 16 35  1  0
 16 36  1  0
 17 18  1  0
 17 37  1  0
 18 19  2  0
 18 27  1  0
 19 20  1  0
 19 24  1  0
 20 21  1  0
 20 38  1  1
 20 39  1  0
 21 22  1  0
 21 40  1  1
 21 41  1  0
 22 23  1  0
 22 42  1  1
 22 43  1  0
 23 24  1  0
 23 44  1  6
 23 45  1  0
 24 25  2  0
 25 26  1  0
 25 46  1  0
 26 27  2  0
 27 47  1  0
M  END
$$$$
