LIG(A-305)
     RDKit          3D

 35 37  0  0  0  0  0  0  0  0999 V2000
    9.0316    0.8419   21.0623 O   0  0  0  0  0  0  0  0  0  0  0  0
    8.5356   -0.2321   21.3804 C   0  0  0  0  0  0  0  0  0  0  0  0
    9.0007   -0.9900   22.6054 C   0  0  1  0  0  0  0  0  0  0  0  0
   10.4758   -0.7600   22.8272 C   0  0  0  0  0  0  0  0  0  0  0  0
   10.9199    0.1440   23.7821 C   0  0  0  0  0  0  0  0  0  0  0  0
   12.2669    0.4370   23.9090 C   0  0  0  0  0  0  0  0  0  0  0  0
   13.1948   -0.1761   23.0829 C   0  0  0  0  0  0  0  0  0  0  0  0
   11.4097   -1.3941   22.0161 C   0  0  0  0  0  0  0  0  0  0  0  0
   12.7487   -1.0932   22.1540 C   0  0  0  0  0  0  0  0  0  0  0  0
   13.8975   -1.8782   21.1099 Cl  0  0  0  0  0  0  0  0  0  0  0  0
    7.5305   -0.8111   20.6985 N   0  0  0  0  0  0  0  0  0  0  0  0
    6.7655   -0.1471   19.7125 C   0  0  0  0  0  0  0  0  0  0  0  0
    5.6215    0.5770   20.0816 C   0  0  0  0  0  0  0  0  0  0  0  0
    5.1657    0.6911   21.5287 C   0  0  2  0  0  0  0  0  0  0  0  0
    4.0477    1.6301   21.9047 C   0  0  1  0  0  0  0  0  0  0  0  0
    5.4418    1.9581   22.2976 C   0  0  2  0  0  0  0  0  0  0  0  0
    4.9254    1.2499   19.0827 C   0  0  0  0  0  0  0  0  0  0  0  0
    5.3903    1.1989   17.7826 C   0  0  0  0  0  0  0  0  0  0  0  0
    6.4843    0.5208   17.4145 N   0  0  0  0  0  0  0  0  0  0  0  0
    7.1443   -0.1422   18.3695 C   0  0  0  0  0  0  0  0  0  0  0  0
    8.4412   -0.6389   23.4849 H   0  0  0  0  0  0  0  0  0  0  0  0
    8.8178   -2.0648   22.4596 H   0  0  0  0  0  0  0  0  0  0  0  0
   10.2058    0.6248   24.4343 H   0  0  0  0  0  0  0  0  0  0  0  0
   12.5956    1.1459   24.6545 H   0  0  0  0  0  0  0  0  0  0  0  0
   14.2457    0.0591   23.1645 H   0  0  0  0  0  0  0  0  0  0  0  0
   11.0887   -2.1183   21.2821 H   0  0  0  0  0  0  0  0  0  0  0  0
    7.3122   -1.7657   20.9008 H   0  0  0  0  0  0  0  0  0  0  0  0
    5.2199   -0.2393   22.1129 H   0  0  0  0  0  0  0  0  0  0  0  0
    3.5433    2.2220   21.1267 H   0  0  0  0  0  0  0  0  0  0  0  0
    3.3169    1.3338   22.6716 H   0  0  0  0  0  0  0  0  0  0  0  0
    5.9674    2.7922   21.8099 H   0  0  0  0  0  0  0  0  0  0  0  0
    5.7410    1.9041   23.3547 H   0  0  0  0  0  0  0  0  0  0  0  0
    4.0311    1.8065   19.3209 H   0  0  0  0  0  0  0  0  0  0  0  0
    4.8416    1.7348   17.0223 H   0  0  0  0  0  0  0  0  0  0  0  0
    8.0206   -0.7060   18.0854 H   0  0  0  0  0  0  0  0  0  0  0  0
  1  2  2  0
  2  3  1  0
  2 11  1  0
  3  4  1  0
  3 21  1  1
  3 22  1  0
  4  5  2  0
  4  8  1  0
  5  6  1  0
  5 23  1  0
  6  7  2  0
  6 24  1  0
  7  9  1  0
  7 25  1  0
  8  9  2  0
  8 26  1  0
  9 10  1  0
 11 12  1  0
 11 27  1  0
 12 13  2  0
 12 20  1  0
 13 14  1  0
 13 17  1  0
 14 15  1  0
 14 16  1  0
 14 28  1  1
 15 16  1  0
 15 29  1  6
 15 30  1  0
 16 31  1  6
 16 32  1  0
 17 18  2  0
 17 33  1  0
 18 19  1  0
 18 34  1  0
 19 20  2  0
 20 35  1  0
M  END
$$$$
