LIG(A-305)
     RDKit          3D

 40 41  0  0  1  0  0  0  0  0999 V2000
    7.8250   -0.3622   21.3243 N   0  0  0  0  0  0  0  0  0  0  0  0
    5.6439    1.0228   18.0784 C   0  0  0  0  0  0  0  0  0  0  0  0
    9.3821   -0.0693   23.1662 C   0  0  1  0  0  0  0  0  0  0  0  0
    8.9241    0.2887   21.7562 C   0  0  0  0  0  0  0  0  0  0  0  0
   10.9231   -0.2534   23.2051 C   0  0  2  0  0  0  0  0  0  0  0  0
   12.9680   -1.4486   22.2890 C   0  0  1  0  0  0  0  0  0  0  0  0
   13.4730   -1.7185   23.7010 C   0  0  1  0  0  0  0  0  0  0  0  0
   12.9872   -0.6435   24.6560 C   0  0  1  0  0  0  0  0  0  0  0  0
    5.8610    0.8379   20.4584 C   0  0  0  0  0  0  0  0  0  0  0  0
    7.4378   -0.1243   18.9073 C   0  0  0  0  0  0  0  0  0  0  0  0
    7.0419    0.0908   20.2273 C   0  0  0  0  0  0  0  0  0  0  0  0
    5.1550    1.2819   19.3454 C   0  0  0  0  0  0  0  0  0  0  0  0
    5.4071    1.2170   21.8444 C   0  0  1  0  0  0  0  0  0  0  0  0
    8.9023    1.0618   24.0772 C   0  0  1  0  0  0  0  0  0  0  0  0
    6.7688    0.3408   17.8463 N   0  0  0  0  0  0  0  0  0  0  0  0
    9.4641    1.1837   21.1241 O   0  0  0  0  0  0  0  0  0  0  0  0
   11.4420   -1.3384   22.2511 C   0  0  2  0  0  0  0  0  0  0  0  0
   11.4622   -0.5124   24.6231 C   0  0  2  0  0  0  0  0  0  0  0  0
    7.5487   -1.1997   21.7958 H   0  0  0  0  0  0  0  0  0  0  0  0
    5.0862    1.3919   17.2303 H   0  0  0  0  0  0  0  0  0  0  0  0
    8.9031   -1.0101   23.4750 H   0  0  0  0  0  0  0  0  0  0  0  0
   11.3607    0.6986   22.8698 H   0  0  0  0  0  0  0  0  0  0  0  0
   13.4035   -0.5053   21.9277 H   0  0  0  0  0  0  0  0  0  0  0  0
   13.2834   -2.2731   21.6327 H   0  0  0  0  0  0  0  0  0  0  0  0
   13.0998   -2.6969   24.0377 H   0  0  0  0  0  0  0  0  0  0  0  0
   14.5730   -1.7276   23.6960 H   0  0  0  0  0  0  0  0  0  0  0  0
   13.3017   -0.9038   25.6774 H   0  0  0  0  0  0  0  0  0  0  0  0
   13.4351    0.3192   24.3685 H   0  0  0  0  0  0  0  0  0  0  0  0
    8.3354   -0.6987   18.7319 H   0  0  0  0  0  0  0  0  0  0  0  0
    4.2303    1.8259   19.4701 H   0  0  0  0  0  0  0  0  0  0  0  0
    6.1808    1.8306   22.3292 H   0  0  0  0  0  0  0  0  0  0  0  0
    4.4712    1.7914   21.7794 H   0  0  0  0  0  0  0  0  0  0  0  0
    5.2376    0.3057   22.4366 H   0  0  0  0  0  0  0  0  0  0  0  0
    9.2077    0.8535   25.1132 H   0  0  0  0  0  0  0  0  0  0  0  0
    9.3479    2.0120   23.7477 H   0  0  0  0  0  0  0  0  0  0  0  0
    7.8059    1.1338   24.0256 H   0  0  0  0  0  0  0  0  0  0  0  0
   11.1285   -1.0906   21.2262 H   0  0  0  0  0  0  0  0  0  0  0  0
   11.0081   -2.3061   22.5432 H   0  0  0  0  0  0  0  0  0  0  0  0
   11.0197   -1.4447   25.0037 H   0  0  0  0  0  0  0  0  0  0  0  0
   11.1662    0.3255   25.2714 H   0  0  0  0  0  0  0  0  0  0  0  0
  1  4  1  0
  1 11  1  0
  1 19  1  0
  2 12  1  0
  2 15  2  0
  2 20  1  0
  3  4  1  0
  3  5  1  0
  3 14  1  0
  3 21  1  1
  4 16  2  0
  5 17  1  0
  5 18  1  0
  5 22  1  6
  6  7  1  0
  6 17  1  0
  6 23  1  6
  6 24  1  0
  7  8  1  0
  7 25  1  1
  7 26  1  0
  8 18  1  0
  8 27  1  1
  8 28  1  0
  9 11  1  0
  9 12  2  0
  9 13  1  0
 10 11  2  0
 10 15  1  0
 10 29  1  0
 12 30  1  0
 13 31  1  1
 13 32  1  0
 13 33  1  0
 14 34  1  1
 14 35  1  0
 14 36  1  0
 17 37  1  6
 17 38  1  0
 18 39  1  1
 18 40  1  0
M  END
$$$$
