LIG(A-306)
     RDKit          3D

 46 48  0  0  0  0  0  0  0  0999 V2000
    9.0598    1.2502   21.2796 O   0  0  0  0  0  0  0  0  0  0  0  0
    8.9594    0.0950   21.6844 C   0  0  0  0  0  0  0  0  0  0  0  0
    7.9067   -0.8454   21.0978 C   0  0  1  0  0  0  0  0  0  0  0  0
    7.1675   -0.2074   20.0284 N   0  0  0  0  0  0  0  0  0  0  0  0
    6.0407    0.5563   20.0944 C   0  0  0  0  0  0  0  0  0  0  0  0
    5.2454    1.0037   21.1380 C   0  0  0  0  0  0  0  0  0  0  0  0
    4.1636    1.8146   20.8247 C   0  0  0  0  0  0  0  0  0  0  0  0
    3.8891    2.1604   19.5029 C   0  0  0  0  0  0  0  0  0  0  0  0
    4.6894    1.7021   18.4644 C   0  0  0  0  0  0  0  0  0  0  0  0
    5.7822    0.8981   18.7696 C   0  0  0  0  0  0  0  0  0  0  0  0
    6.7596    0.3454   17.9746 N   0  0  0  0  0  0  0  0  0  0  0  0
    7.5850   -0.3138   18.7411 N   0  0  0  0  0  0  0  0  0  0  0  0
    9.7473   -0.3953   22.6680 N   0  0  0  0  0  0  0  0  0  0  0  0
    9.4691   -1.6514   23.3752 C   0  0  1  0  0  0  0  0  0  0  0  0
    8.9653   -1.4535   24.8021 C   0  0  2  0  0  0  0  0  0  0  0  0
    8.7883   -2.8116   25.4708 C   0  0  1  0  0  0  0  0  0  0  0  0
    7.6535   -0.6744   24.8299 C   0  0  1  0  0  0  0  0  0  0  0  0
   10.9315    0.3566   23.0975 C   0  0  1  0  0  0  0  0  0  0  0  0
   12.1554   -0.4994   23.3331 C   0  0  0  0  0  0  0  0  0  0  0  0
   12.7792   -0.5168   24.5713 C   0  0  0  0  0  0  0  0  0  0  0  0
   13.9259   -1.2661   24.7773 C   0  0  0  0  0  0  0  0  0  0  0  0
   14.4579   -2.0110   23.7521 C   0  0  0  0  0  0  0  0  0  0  0  0
   13.8541   -2.0015   22.5169 C   0  0  0  0  0  0  0  0  0  0  0  0
   12.7094   -1.2502   22.3059 C   0  0  0  0  0  0  0  0  0  0  0  0
    8.4075   -1.7413   20.7022 H   0  0  0  0  0  0  0  0  0  0  0  0
    7.2053   -1.1384   21.8929 H   0  0  0  0  0  0  0  0  0  0  0  0
    5.4604    0.7303   22.1604 H   0  0  0  0  0  0  0  0  0  0  0  0
    3.5264    2.1824   21.6153 H   0  0  0  0  0  0  0  0  0  0  0  0
    3.0422    2.7935   19.2831 H   0  0  0  0  0  0  0  0  0  0  0  0
    4.4675    1.9648   17.4406 H   0  0  0  0  0  0  0  0  0  0  0  0
    8.7048   -2.2057   22.8108 H   0  0  0  0  0  0  0  0  0  0  0  0
   10.3967   -2.2414   23.4131 H   0  0  0  0  0  0  0  0  0  0  0  0
    9.7211   -0.8841   25.3629 H   0  0  0  0  0  0  0  0  0  0  0  0
    8.4252   -2.6699   26.4995 H   0  0  0  0  0  0  0  0  0  0  0  0
    8.0582   -3.4074   24.9032 H   0  0  0  0  0  0  0  0  0  0  0  0
    9.7539   -3.3383   25.4923 H   0  0  0  0  0  0  0  0  0  0  0  0
    7.3216   -0.5513   25.8715 H   0  0  0  0  0  0  0  0  0  0  0  0
    7.8052    0.3152   24.3741 H   0  0  0  0  0  0  0  0  0  0  0  0
    6.8879   -1.2253   24.2640 H   0  0  0  0  0  0  0  0  0  0  0  0
   11.1718    1.0961   22.3195 H   0  0  0  0  0  0  0  0  0  0  0  0
   10.6885    0.8771   24.0356 H   0  0  0  0  0  0  0  0  0  0  0  0
   12.3661    0.0608   25.3850 H   0  0  0  0  0  0  0  0  0  0  0  0
   14.4032   -1.2650   25.7461 H   0  0  0  0  0  0  0  0  0  0  0  0
   15.3470   -2.6017   23.9162 H   0  0  0  0  0  0  0  0  0  0  0  0
   14.2736   -2.5818   21.7084 H   0  0  0  0  0  0  0  0  0  0  0  0
   12.2432   -1.2489   21.3317 H   0  0  0  0  0  0  0  0  0  0  0  0
  1  2  2  0
  2  3  1  0
  2 13  1  0
  3  4  1  0
  3 25  1  6
  3 26  1  0
  4  5  1  0
  4 12  1  0
  5  6  2  0
  5 10  1  0
  6  7  1  0
  6 27  1  0
  7  8  2  0
  7 28  1  0
  8  9  1  0
  8 29  1  0
  9 10  2  0
  9 30  1  0
 10 11  1  0
 11 12  2  0
 13 14  1  0
 13 18  1  0
 14 15  1  0
 14 31  1  6
 14 32  1  0
 15 16  1  0
 15 17  1  0
 15 33  1  1
 16 34  1  1
 16 35  1  0
 16 36  1  0
 17 37  1  1
 17 38  1  0
 17 39  1  0
 18 19  1  0
 18 40  1  6
 18 41  1  0
 19 20  2  0
 19 24  1  0
 20 21  1  0
 20 42  1  0
 21 22  2  0
 21 43  1  0
 22 23  1  0
 22 44  1  0
 23 24  2  0
 23 45  1  0
 24 46  1  0
M  END
$$$$
