LIG(A-305)
     RDKit          3D

 40 43  0  0  1  0  0  0  0  0999 V2000
    9.1617    0.8377   20.9783 O   0  0  0  0  0  0  0  0  0  0  0  0
    8.6027   -0.1993   21.3314 C   0  0  0  0  0  0  0  0  0  0  0  0
    9.0828   -1.0163   22.5304 C   0  0  2  0  0  0  0  0  0  0  0  0
    8.2400   -0.7422   23.7854 C   0  0  1  0  0  0  0  0  0  0  0  0
    8.5021    0.6578   24.3084 C   0  0  1  0  0  0  0  0  0  0  0  0
    9.9301    0.8808   24.4962 N   0  0  0  0  0  0  0  0  0  0  0  0
   10.5399   -0.6843   22.7642 C   0  0  0  0  0  0  0  0  0  0  0  0
   10.8960    0.2667   23.7321 C   0  0  0  0  0  0  0  0  0  0  0  0
   12.2340    0.6397   23.8780 C   0  0  0  0  0  0  0  0  0  0  0  0
   13.2069    0.0726   23.0719 C   0  0  0  0  0  0  0  0  0  0  0  0
   11.5288   -1.2624   21.9821 C   0  0  0  0  0  0  0  0  0  0  0  0
   12.8398   -0.8774   22.1420 C   0  0  0  0  0  0  0  0  0  0  0  0
   14.0567   -1.6164   21.1479 Cl  0  0  0  0  0  0  0  0  0  0  0  0
    7.5217   -0.7083   20.7075 N   0  0  0  0  0  0  0  0  0  0  0  0
    6.7776   -0.1143   19.6756 C   0  0  0  0  0  0  0  0  0  0  0  0
    5.6116    0.6267   20.0337 C   0  0  0  0  0  0  0  0  0  0  0  0
    5.1048    0.7098   21.3547 C   0  0  0  0  0  0  0  0  0  0  0  0
    3.9728    1.4228   21.6278 C   0  0  0  0  0  0  0  0  0  0  0  0
    3.2967    2.0898   20.6179 C   0  0  0  0  0  0  0  0  0  0  0  0
    3.7526    2.0518   19.3328 C   0  0  0  0  0  0  0  0  0  0  0  0
    4.9175    1.3157   19.0037 C   0  0  0  0  0  0  0  0  0  0  0  0
    5.4264    1.2126   17.6867 C   0  0  0  0  0  0  0  0  0  0  0  0
    6.5073    0.5146   17.3556 N   0  0  0  0  0  0  0  0  0  0  0  0
    7.1544   -0.1284   18.3345 C   0  0  0  0  0  0  0  0  0  0  0  0
    8.9993   -2.0846   22.2817 H   0  0  0  0  0  0  0  0  0  0  0  0
    7.1738   -0.8405   23.5337 H   0  0  0  0  0  0  0  0  0  0  0  0
    8.5019   -1.4740   24.5638 H   0  0  0  0  0  0  0  0  0  0  0  0
    8.1144    1.3912   23.5859 H   0  0  0  0  0  0  0  0  0  0  0  0
    7.9873    0.7852   25.2721 H   0  0  0  0  0  0  0  0  0  0  0  0
   10.2039    1.6857   25.0226 H   0  0  0  0  0  0  0  0  0  0  0  0
   12.5107    1.3724   24.6215 H   0  0  0  0  0  0  0  0  0  0  0  0
   14.2404    0.3707   23.1703 H   0  0  0  0  0  0  0  0  0  0  0  0
   11.2703   -2.0127   21.2496 H   0  0  0  0  0  0  0  0  0  0  0  0
    7.2154   -1.6096   21.0139 H   0  0  0  0  0  0  0  0  0  0  0  0
    5.6209    0.2022   22.1562 H   0  0  0  0  0  0  0  0  0  0  0  0
    3.6005    1.4677   22.6407 H   0  0  0  0  0  0  0  0  0  0  0  0
    2.4002    2.6450   20.8508 H   0  0  0  0  0  0  0  0  0  0  0  0
    3.2211    2.5870   18.5600 H   0  0  0  0  0  0  0  0  0  0  0  0
    4.9021    1.7351   16.9002 H   0  0  0  0  0  0  0  0  0  0  0  0
    8.0313   -0.6988   18.0659 H   0  0  0  0  0  0  0  0  0  0  0  0
  1  2  2  0
  2  3  1  0
  2 14  1  0
  3  4  1  0
  3  7  1  0
  3 25  1  6
  4  5  1  0
  4 26  1  6
  4 27  1  0
  5  6  1  0
  5 28  1  6
  5 29  1  0
  6  8  1  0
  6 30  1  0
  7  8  1  0
  7 11  2  0
  8  9  2  0
  9 10  1  0
  9 31  1  0
 10 12  2  0
 10 32  1  0
 11 12  1  0
 11 33  1  0
 12 13  1  0
 14 15  1  0
 14 34  1  0
 15 16  2  0
 15 24  1  0
 16 17  1  0
 16 21  1  0
 17 18  2  0
 17 35  1  0
 18 19  1  0
 18 36  1  0
 19 20  2  0
 19 37  1  0
 20 21  1  0
 20 38  1  0
 21 22  2  0
 22 23  1  0
 22 39  1  0
 23 24  2  0
 24 40  1  0
M  END
$$$$
