LIG(A-306)
     RDKit          3D

 53 57  0  0  1  0  0  0  0  0999 V2000
    8.8755    6.8293   22.3031 N   0  0  0  0  0  0  0  0  0  0  0  0
    8.0883    6.0404   22.5408 C   0  0  0  0  0  0  0  0  0  0  0  0
    7.1035    4.9978   22.8763 C   0  0  2  0  0  0  0  0  0  0  0  0
    7.0390    4.6714   24.3898 C   0  0  1  0  0  0  0  0  0  0  0  0
    7.5355    3.5248   22.6572 C   0  0  1  0  0  0  0  0  0  0  0  0
    7.6904    3.3573   24.1282 N   0  0  0  0  0  0  0  0  0  0  0  0
    7.6998    2.0443   25.0504 S   0  0  1  0  0  0  0  0  0  0  0  0
    8.1046    2.4743   26.3442 O   0  0  0  0  0  0  0  0  0  0  0  0
    6.4719    1.3496   24.8705 O   0  0  0  0  0  0  0  0  0  0  0  0
    8.8710    1.1231   24.4727 N   0  0  0  0  0  0  0  0  0  0  0  0
   10.2677    1.3246   24.8699 C   0  0  1  0  0  0  0  0  0  0  0  0
    8.5317   -0.2877   24.2009 C   0  0  1  0  0  0  0  0  0  0  0  0
    9.2826   -0.7323   22.9448 C   0  0  2  0  0  0  0  0  0  0  0  0
   10.7647   -0.4184   23.0628 C   0  0  0  0  0  0  0  0  0  0  0  0
   11.2026    0.5999   23.9283 C   0  0  0  0  0  0  0  0  0  0  0  0
   12.5515    0.9515   23.9357 C   0  0  0  0  0  0  0  0  0  0  0  0
   13.4634    0.3049   23.1242 C   0  0  0  0  0  0  0  0  0  0  0  0
   11.6976   -1.0897   22.2691 C   0  0  0  0  0  0  0  0  0  0  0  0
   13.0282   -0.7131   22.3108 C   0  0  0  0  0  0  0  0  0  0  0  0
   14.1758   -1.5304   21.2884 Cl  0  0  0  0  0  0  0  0  0  0  0  0
    8.7168   -0.0074   21.7189 C   0  0  0  0  0  0  0  0  0  0  0  0
    9.2980    0.9423   21.2013 O   0  0  0  0  0  0  0  0  0  0  0  0
    7.5299   -0.4914   21.2632 N   0  0  0  0  0  0  0  0  0  0  0  0
    6.7659   -0.0316   20.1603 C   0  0  0  0  0  0  0  0  0  0  0  0
    5.6044    0.7751   20.3976 C   0  0  0  0  0  0  0  0  0  0  0  0
    5.0762    1.0459   21.6859 C   0  0  0  0  0  0  0  0  0  0  0  0
    3.9641    1.8268   21.8420 C   0  0  0  0  0  0  0  0  0  0  0  0
    3.3253    2.3792   20.7396 C   0  0  0  0  0  0  0  0  0  0  0  0
    3.7926    2.1473   19.4771 C   0  0  0  0  0  0  0  0  0  0  0  0
    4.9352    1.3355   19.2678 C   0  0  0  0  0  0  0  0  0  0  0  0
    5.4467    1.0338   17.9791 C   0  0  0  0  0  0  0  0  0  0  0  0
    6.5102    0.2714   17.7603 N   0  0  0  0  0  0  0  0  0  0  0  0
    7.1383   -0.2371   18.8306 C   0  0  0  0  0  0  0  0  0  0  0  0
    6.1060    5.1977   22.4581 H   0  0  0  0  0  0  0  0  0  0  0  0
    7.6313    5.3493   25.0220 H   0  0  0  0  0  0  0  0  0  0  0  0
    6.0174    4.5953   24.7905 H   0  0  0  0  0  0  0  0  0  0  0  0
    6.7563    2.8890   22.2114 H   0  0  0  0  0  0  0  0  0  0  0  0
    8.4712    3.4100   22.0903 H   0  0  0  0  0  0  0  0  0  0  0  0
   10.4972    2.4001   24.8492 H   0  0  0  0  0  0  0  0  0  0  0  0
   10.4121    0.9384   25.8898 H   0  0  0  0  0  0  0  0  0  0  0  0
    8.8327   -0.9131   25.0544 H   0  0  0  0  0  0  0  0  0  0  0  0
    7.4479   -0.3847   24.0395 H   0  0  0  0  0  0  0  0  0  0  0  0
    9.1518   -1.8165   22.8126 H   0  0  0  0  0  0  0  0  0  0  0  0
   12.8895    1.7435   24.5875 H   0  0  0  0  0  0  0  0  0  0  0  0
   14.5035    0.5955   23.1291 H   0  0  0  0  0  0  0  0  0  0  0  0
   11.3821   -1.8982   21.6263 H   0  0  0  0  0  0  0  0  0  0  0  0
    7.1493   -1.2664   21.7678 H   0  0  0  0  0  0  0  0  0  0  0  0
    5.5596    0.6291   22.5570 H   0  0  0  0  0  0  0  0  0  0  0  0
    3.5788    2.0159   22.8330 H   0  0  0  0  0  0  0  0  0  0  0  0
    2.4513    2.9975   20.8816 H   0  0  0  0  0  0  0  0  0  0  0  0
    3.2864    2.5868   18.6304 H   0  0  0  0  0  0  0  0  0  0  0  0
    4.9384    1.4512   17.1225 H   0  0  0  0  0  0  0  0  0  0  0  0
    8.0038   -0.8570   18.6489 H   0  0  0  0  0  0  0  0  0  0  0  0
  1  2  3  0
  2  3  1  0
  3  4  1  0
  3  5  1  0
  3 34  1  6
  4  6  1  0
  4 35  1  1
  4 36  1  0
  5  6  1  0
  5 37  1  6
  5 38  1  0
  7  6  1  6
  7  8  2  0
  7  9  2  0
  7 10  1  0
 10 11  1  0
 10 12  1  0
 11 15  1  0
 11 39  1  1
 11 40  1  0
 12 13  1  0
 12 41  1  1
 12 42  1  0
 13 14  1  0
 13 21  1  0
 13 43  1  6
 14 15  2  0
 14 18  1  0
 15 16  1  0
 16 17  2  0
 16 44  1  0
 17 19  1  0
 17 45  1  0
 18 19  2  0
 18 46  1  0
 19 20  1  0
 21 22  2  0
 21 23  1  0
 23 24  1  0
 23 47  1  0
 24 25  2  0
 24 33  1  0
 25 26  1  0
 25 30  1  0
 26 27  2  0
 26 48  1  0
 27 28  1  0
 27 49  1  0
 28 29  2  0
 28 50  1  0
 29 30  1  0
 29 51  1  0
 30 31  2  0
 31 32  1  0
 31 52  1  0
 32 33  2  0
 33 53  1  0
M  END
$$$$
