LIG(A-306)
     RDKit          3D

 60 64  0  0  1  0  0  0  0  0999 V2000
    6.1820    1.0853   24.9562 O   0  0  0  0  0  0  0  0  0  0  0  0
    7.4169    1.7966   24.8372 S   0  0  2  0  0  0  0  0  0  0  0  0
    7.8608    2.6076   25.9261 O   0  0  0  0  0  0  0  0  0  0  0  0
    7.3566    2.8196   23.3792 C   0  0  1  0  0  0  0  0  0  0  0  0
    6.8014    4.2395   23.5162 C   0  0  2  0  0  0  0  0  0  0  0  0
    5.3044    4.2262   23.8463 C   0  0  1  0  0  0  0  0  0  0  0  0
    4.7352    5.6251   23.8393 C   0  0  1  0  0  0  0  0  0  0  0  0
    4.9840    6.2862   22.5873 O   0  0  0  0  0  0  0  0  0  0  0  0
    6.3930    6.4134   22.3562 C   0  0  1  0  0  0  0  0  0  0  0  0
    7.0562    5.0595   22.2522 C   0  0  1  0  0  0  0  0  0  0  0  0
    8.5790    0.6978   24.5471 N   0  0  0  0  0  0  0  0  0  0  0  0
    9.9530    0.9670   24.9891 C   0  0  1  0  0  0  0  0  0  0  0  0
    8.3023   -0.6973   24.1591 C   0  0  1  0  0  0  0  0  0  0  0  0
    9.0933   -0.9501   22.8741 C   0  0  2  0  0  0  0  0  0  0  0  0
   10.5612   -0.6149   23.0770 C   0  0  0  0  0  0  0  0  0  0  0  0
   10.9461    0.3312   24.0430 C   0  0  0  0  0  0  0  0  0  0  0  0
   12.2860    0.7054   24.1320 C   0  0  0  0  0  0  0  0  0  0  0  0
   13.2371    0.1626   23.2879 C   0  0  0  0  0  0  0  0  0  0  0  0
   11.5343   -1.1917   22.2580 C   0  0  0  0  0  0  0  0  0  0  0  0
   12.8522   -0.7925   22.3769 C   0  0  0  0  0  0  0  0  0  0  0  0
   14.0603   -1.5363   21.3639 Cl  0  0  0  0  0  0  0  0  0  0  0  0
    8.5131   -0.1292   21.7171 C   0  0  0  0  0  0  0  0  0  0  0  0
    9.0639    0.8909   21.2951 O   0  0  0  0  0  0  0  0  0  0  0  0
    7.3642   -0.6264   21.1881 N   0  0  0  0  0  0  0  0  0  0  0  0
    6.6470   -0.1345   20.0722 C   0  0  0  0  0  0  0  0  0  0  0  0
    5.4999    0.6973   20.2902 C   0  0  0  0  0  0  0  0  0  0  0  0
    4.9199    0.9252   21.5652 C   0  0  0  0  0  0  0  0  0  0  0  0
    3.8288    1.7350   21.7063 C   0  0  0  0  0  0  0  0  0  0  0  0
    3.2636    2.3619   20.6033 C   0  0  0  0  0  0  0  0  0  0  0  0
    3.7776    2.1650   19.3533 C   0  0  0  0  0  0  0  0  0  0  0  0
    4.8988    1.3202   19.1582 C   0  0  0  0  0  0  0  0  0  0  0  0
    5.4498    1.0453   17.8832 C   0  0  0  0  0  0  0  0  0  0  0  0
    6.4919    0.2505   17.6772 N   0  0  0  0  0  0  0  0  0  0  0  0
    7.0630   -0.3124   18.7521 C   0  0  0  0  0  0  0  0  0  0  0  0
    8.3850    2.9064   22.9986 H   0  0  0  0  0  0  0  0  0  0  0  0
    6.7346    2.2959   22.6384 H   0  0  0  0  0  0  0  0  0  0  0  0
    7.3266    4.7291   24.3495 H   0  0  0  0  0  0  0  0  0  0  0  0
    4.7762    3.6194   23.0961 H   0  0  0  0  0  0  0  0  0  0  0  0
    5.1599    3.7843   24.8432 H   0  0  0  0  0  0  0  0  0  0  0  0
    3.6492    5.5704   24.0055 H   0  0  0  0  0  0  0  0  0  0  0  0
    5.2014    6.2053   24.6493 H   0  0  0  0  0  0  0  0  0  0  0  0
    6.5541    6.9644   21.4179 H   0  0  0  0  0  0  0  0  0  0  0  0
    6.8441    6.9704   23.1906 H   0  0  0  0  0  0  0  0  0  0  0  0
    8.1399    5.1964   22.1221 H   0  0  0  0  0  0  0  0  0  0  0  0
    6.6476    4.5222   21.3837 H   0  0  0  0  0  0  0  0  0  0  0  0
   10.1196    2.0540   25.0123 H   0  0  0  0  0  0  0  0  0  0  0  0
   10.0969    0.5523   25.9977 H   0  0  0  0  0  0  0  0  0  0  0  0
    8.6321   -1.3856   24.9512 H   0  0  0  0  0  0  0  0  0  0  0  0
    7.2263   -0.8359   23.9776 H   0  0  0  0  0  0  0  0  0  0  0  0
    9.0098   -2.0168   22.6188 H   0  0  0  0  0  0  0  0  0  0  0  0
   12.5863    1.4316   24.8728 H   0  0  0  0  0  0  0  0  0  0  0  0
   14.2666    0.4839   23.3434 H   0  0  0  0  0  0  0  0  0  0  0  0
   11.2585   -1.9456   21.5356 H   0  0  0  0  0  0  0  0  0  0  0  0
    6.9817   -1.4326   21.6396 H   0  0  0  0  0  0  0  0  0  0  0  0
    5.3473    0.4515   22.4366 H   0  0  0  0  0  0  0  0  0  0  0  0
    3.4011    1.8893   22.6859 H   0  0  0  0  0  0  0  0  0  0  0  0
    2.4103    3.0106   20.7351 H   0  0  0  0  0  0  0  0  0  0  0  0
    3.3254    2.6578   18.5053 H   0  0  0  0  0  0  0  0  0  0  0  0
    4.9925    1.5124   17.0235 H   0  0  0  0  0  0  0  0  0  0  0  0
    7.9139   -0.9556   18.5824 H   0  0  0  0  0  0  0  0  0  0  0  0
  1  2  2  0
  2  3  2  0
  2  4  1  0
  2 11  1  6
  4  5  1  0
  4 35  1  6
  4 36  1  0
  5  6  1  0
  5 10  1  0
  5 37  1  1
  6  7  1  0
  6 38  1  6
  6 39  1  0
  7  8  1  0
  7 40  1  1
  7 41  1  0
  8  9  1  0
  9 10  1  0
  9 42  1  6
  9 43  1  0
 10 44  1  6
 10 45  1  0
 11 12  1  0
 11 13  1  0
 12 16  1  0
 12 46  1  1
 12 47  1  0
 13 14  1  0
 13 48  1  1
 13 49  1  0
 14 15  1  0
 14 22  1  0
 14 50  1  6
 15 16  2  0
 15 19  1  0
 16 17  1  0
 17 18  2  0
 17 51  1  0
 18 20  1  0
 18 52  1  0
 19 20  2  0
 19 53  1  0
 20 21  1  0
 22 23  2  0
 22 24  1  0
 24 25  1  0
 24 54  1  0
 25 26  2  0
 25 34  1  0
 26 27  1  0
 26 31  1  0
 27 28  2  0
 27 55  1  0
 28 29  1  0
 28 56  1  0
 29 30  2  0
 29 57  1  0
 30 31  1  0
 30 58  1  0
 31 32  2  0
 32 33  1  0
 32 59  1  0
 33 34  2  0
 34 60  1  0
M  END
$$$$
