LIG(A-306)
     RDKit          3D

 39 42  0  0  1  0  0  0  0  0999 V2000
  -14.3904   -2.5216  -21.1196 Cl  0  0  0  0  0  0  0  0  0  0  0  0
  -13.2325   -1.7316  -22.1362 C   0  0  0  0  0  0  0  0  0  0  0  0
  -13.6548   -0.8567  -23.1145 C   0  0  0  0  0  0  0  0  0  0  0  0
  -14.9821   -0.6874  -23.3139 F   0  0  0  0  0  0  0  0  0  0  0  0
  -11.8809   -1.9195  -21.9252 C   0  0  0  0  0  0  0  0  0  0  0  0
  -10.9418   -1.2229  -22.6830 C   0  0  0  0  0  0  0  0  0  0  0  0
  -11.4107   -0.3383  -23.6641 C   0  0  0  0  0  0  0  0  0  0  0  0
  -12.7656   -0.1477  -23.8821 C   0  0  0  0  0  0  0  0  0  0  0  0
   -9.4562   -1.4378  -22.4855 C   0  0  1  0  0  0  0  0  0  0  0  0
   -8.7128   -1.0674  -23.7758 C   0  0  1  0  0  0  0  0  0  0  0  0
   -9.1551    0.2982  -24.2425 C   0  0  1  0  0  0  0  0  0  0  0  0
  -10.5789    0.3706  -24.5009 O   0  0  0  0  0  0  0  0  0  0  0  0
   -8.9818   -0.5643  -21.3215 C   0  0  0  0  0  0  0  0  0  0  0  0
   -9.5415    0.4875  -21.0205 O   0  0  0  0  0  0  0  0  0  0  0  0
   -7.8919   -1.0366  -20.6823 N   0  0  0  0  0  0  0  0  0  0  0  0
   -7.1158   -0.3976  -19.6987 C   0  0  0  0  0  0  0  0  0  0  0  0
   -6.0610    0.4734  -20.1164 C   0  0  0  0  0  0  0  0  0  0  0  0
   -5.6764    0.6552  -21.4729 C   0  0  0  0  0  0  0  0  0  0  0  0
   -4.6527    1.4994  -21.8051 C   0  0  0  0  0  0  0  0  0  0  0  0
   -3.9647    2.2024  -20.8211 C   0  0  0  0  0  0  0  0  0  0  0  0
   -4.3004    2.0632  -19.5021 C   0  0  0  0  0  0  0  0  0  0  0  0
   -5.3501    1.1928  -19.1145 C   0  0  0  0  0  0  0  0  0  0  0  0
   -5.7256    0.9842  -17.7658 C   0  0  0  0  0  0  0  0  0  0  0  0
   -6.6980    0.1706  -17.3798 N   0  0  0  0  0  0  0  0  0  0  0  0
   -7.3626   -0.4975  -18.3311 C   0  0  0  0  0  0  0  0  0  0  0  0
  -11.5488   -2.6125  -21.1662 H   0  0  0  0  0  0  0  0  0  0  0  0
  -13.1132    0.5418  -24.6372 H   0  0  0  0  0  0  0  0  0  0  0  0
   -9.2659   -2.4949  -22.2479 H   0  0  0  0  0  0  0  0  0  0  0  0
   -7.6298   -1.0552  -23.5834 H   0  0  0  0  0  0  0  0  0  0  0  0
   -8.9385   -1.8109  -24.5543 H   0  0  0  0  0  0  0  0  0  0  0  0
   -8.9013    1.0342  -23.4654 H   0  0  0  0  0  0  0  0  0  0  0  0
   -8.6168    0.5437  -25.1699 H   0  0  0  0  0  0  0  0  0  0  0  0
   -7.5988   -1.9572  -20.9402 H   0  0  0  0  0  0  0  0  0  0  0  0
   -6.1995    0.1198  -22.2514 H   0  0  0  0  0  0  0  0  0  0  0  0
   -4.3757    1.6215  -22.8418 H   0  0  0  0  0  0  0  0  0  0  0  0
   -3.1583    2.8639  -21.1011 H   0  0  0  0  0  0  0  0  0  0  0  0
   -3.7614    2.6207  -18.7503 H   0  0  0  0  0  0  0  0  0  0  0  0
   -5.1848    1.5230  -17.0019 H   0  0  0  0  0  0  0  0  0  0  0  0
   -8.1502   -1.1650  -18.0141 H   0  0  0  0  0  0  0  0  0  0  0  0
  1  2  1  0
  2  3  2  0
  2  5  1  0
  3  4  1  0
  3  8  1  0
  5  6  2  0
  5 26  1  0
  6  7  1  0
  6  9  1  0
  7  8  2  0
  7 12  1  0
  8 27  1  0
  9 10  1  0
  9 13  1  0
  9 28  1  1
 10 11  1  0
 10 29  1  1
 10 30  1  0
 11 12  1  0
 11 31  1  1
 11 32  1  0
 13 14  2  0
 13 15  1  0
 15 16  1  0
 15 33  1  0
 16 17  2  0
 16 25  1  0
 17 18  1  0
 17 22  1  0
 18 19  2  0
 18 34  1  0
 19 20  1  0
 19 35  1  0
 20 21  2  0
 20 36  1  0
 21 22  1  0
 21 37  1  0
 22 23  2  0
 23 24  1  0
 23 38  1  0
 24 25  2  0
 25 39  1  0
M  END
$$$$
