LIG(A-305)
     RDKit          3D

 29 30  0  0  0  0  0  0  0  0999 V2000
   13.6810   -1.7480   22.0382 Cl  0  0  0  0  0  0  0  0  0  0  0  0
   12.3880   -0.6690   22.4401 C   0  0  0  0  0  0  0  0  0  0  0  0
   12.6800    0.5231   23.0690 C   0  0  0  0  0  0  0  0  0  0  0  0
   11.6481    1.4131   23.3219 C   0  0  0  0  0  0  0  0  0  0  0  0
   10.3531    1.1111   22.9359 C   0  0  0  0  0  0  0  0  0  0  0  0
   11.1041   -1.0070   22.0670 C   0  0  0  0  0  0  0  0  0  0  0  0
   10.0831   -0.0969   22.2999 C   0  0  0  0  0  0  0  0  0  0  0  0
    8.7901   -0.4349   21.8679 N   0  0  0  0  0  0  0  0  0  0  0  0
    7.9321    0.3971   21.2598 C   0  0  0  0  0  0  0  0  0  0  0  0
    8.1962    1.5651   20.9837 O   0  0  0  0  0  0  0  0  0  0  0  0
    6.5901   -0.2029   20.9167 C   0  0  1  0  0  0  0  0  0  0  0  0
    6.2452    0.1910   19.5037 C   0  0  0  0  0  0  0  0  0  0  0  0
    5.3233    1.1380   19.0936 C   0  0  0  0  0  0  0  0  0  0  0  0
    4.4943    2.0501   19.9405 C   0  0  1  0  0  0  0  0  0  0  0  0
    6.8253   -0.2880   18.3498 C   0  0  0  0  0  0  0  0  0  0  0  0
    6.2463    0.3499   17.3307 N   0  0  0  0  0  0  0  0  0  0  0  0
    5.3054    1.2290   17.7586 N   0  0  0  0  0  0  0  0  0  0  0  0
   13.6934    0.7585   23.3590 H   0  0  0  0  0  0  0  0  0  0  0  0
   11.8552    2.3472   23.8228 H   0  0  0  0  0  0  0  0  0  0  0  0
    9.5540    1.8119   23.1280 H   0  0  0  0  0  0  0  0  0  0  0  0
   10.8977   -1.9602   21.6033 H   0  0  0  0  0  0  0  0  0  0  0  0
    8.4840   -1.3736   22.0269 H   0  0  0  0  0  0  0  0  0  0  0  0
    6.6411   -1.2989   20.9958 H   0  0  0  0  0  0  0  0  0  0  0  0
    5.8240    0.1793   21.6074 H   0  0  0  0  0  0  0  0  0  0  0  0
    5.1536    2.6907   20.5446 H   0  0  0  0  0  0  0  0  0  0  0  0
    3.8643    2.6788   19.2940 H   0  0  0  0  0  0  0  0  0  0  0  0
    3.8546    1.4518   20.6059 H   0  0  0  0  0  0  0  0  0  0  0  0
    7.6006   -1.0370   18.2826 H   0  0  0  0  0  0  0  0  0  0  0  0
    4.7236    1.8177   17.1965 H   0  0  0  0  0  0  0  0  0  0  0  0
  1  2  1  0
  2  3  2  0
  2  6  1  0
  3  4  1  0
  3 18  1  0
  4  5  2  0
  4 19  1  0
  5  7  1  0
  5 20  1  0
  6  7  2  0
  6 21  1  0
  7  8  1  0
  8  9  1  0
  8 22  1  0
  9 10  2  0
  9 11  1  0
 11 12  1  0
 11 23  1  6
 11 24  1  0
 12 13  2  0
 12 15  1  0
 13 14  1  0
 13 17  1  0
 14 25  1  1
 14 26  1  0
 14 27  1  0
 15 16  2  0
 15 28  1  0
 16 17  1  0
 17 29  1  0
M  END
$$$$
