LIG(A-305)
     RDKit          3D

 37 40  0  0  1  0  0  0  0  0999 V2000
    8.9450    1.3622   21.0431 O   0  0  0  0  0  0  0  0  0  0  0  0
    8.3920    0.2863   21.2572 C   0  0  0  0  0  0  0  0  0  0  0  0
    8.8130   -0.6407   22.3973 C   0  0  2  0  0  0  0  0  0  0  0  0
    8.2761   -0.0606   23.6982 C   0  0  1  0  0  0  0  0  0  0  0  0
    9.3502    0.7844   24.2021 O   0  0  0  0  0  0  0  0  0  0  0  0
   10.3030   -0.5307   22.6172 C   0  0  0  0  0  0  0  0  0  0  0  0
   10.5381    0.3243   23.6751 C   0  0  0  0  0  0  0  0  0  0  0  0
   11.8172    0.6443   24.0930 C   0  0  0  0  0  0  0  0  0  0  0  0
   12.8911    0.0892   23.4150 C   0  0  0  0  0  0  0  0  0  0  0  0
   11.3790   -1.0998   21.9501 C   0  0  0  0  0  0  0  0  0  0  0  0
   12.6580   -0.7738   22.3560 C   0  0  0  0  0  0  0  0  0  0  0  0
   14.0079   -1.4469   21.4930 Cl  0  0  0  0  0  0  0  0  0  0  0  0
    7.4869   -0.2428   20.3983 N   0  0  0  0  0  0  0  0  0  0  0  0
    6.7609    0.1972   19.3353 C   0  0  0  0  0  0  0  0  0  0  0  0
    6.0199    1.3862   19.3353 N   0  0  0  0  0  0  0  0  0  0  0  0
    5.7888    1.6091   17.9993 C   0  0  0  0  0  0  0  0  0  0  0  0
    6.2998    0.6681   17.2613 N   0  0  0  0  0  0  0  0  0  0  0  0
    6.9018   -0.2479   18.1013 N   0  0  0  0  0  0  0  0  0  0  0  0
    5.4390    2.1793   20.3903 C   0  0  0  0  0  0  0  0  0  0  0  0
    4.0580    2.3644   20.4273 C   0  0  0  0  0  0  0  0  0  0  0  0
    3.5091    3.2644   21.3313 C   0  0  0  0  0  0  0  0  0  0  0  0
    4.3222    3.9705   22.1972 C   0  0  0  0  0  0  0  0  0  0  0  0
    5.6912    3.7734   22.1731 C   0  0  0  0  0  0  0  0  0  0  0  0
    6.2571    2.8773   21.2782 C   0  0  0  0  0  0  0  0  0  0  0  0
    8.4855   -1.6781   22.2343 H   0  0  0  0  0  0  0  0  0  0  0  0
    7.3701    0.5348   23.5120 H   0  0  0  0  0  0  0  0  0  0  0  0
    8.0465   -0.8633   24.4145 H   0  0  0  0  0  0  0  0  0  0  0  0
   11.9753    1.3109   24.9278 H   0  0  0  0  0  0  0  0  0  0  0  0
   13.9023    0.3276   23.7098 H   0  0  0  0  0  0  0  0  0  0  0  0
   11.2190   -1.7840   21.1299 H   0  0  0  0  0  0  0  0  0  0  0  0
    7.3060   -1.2058   20.5975 H   0  0  0  0  0  0  0  0  0  0  0  0
    5.2497    2.4603   17.6103 H   0  0  0  0  0  0  0  0  0  0  0  0
    3.4181    1.8105   19.7564 H   0  0  0  0  0  0  0  0  0  0  0  0
    2.4398    3.4136   21.3577 H   0  0  0  0  0  0  0  0  0  0  0  0
    3.8895    4.6752   22.8919 H   0  0  0  0  0  0  0  0  0  0  0  0
    6.3238    4.3210   22.8560 H   0  0  0  0  0  0  0  0  0  0  0  0
    7.3257    2.7211   21.2690 H   0  0  0  0  0  0  0  0  0  0  0  0
  1  2  2  0
  2  3  1  0
  2 13  1  0
  3  4  1  0
  3  6  1  0
  3 25  1  6
  4  5  1  0
  4 26  1  6
  4 27  1  0
  5  7  1  0
  6  7  2  0
  6 10  1  0
  7  8  1  0
  8  9  2  0
  8 28  1  0
  9 11  1  0
  9 29  1  0
 10 11  2  0
 10 30  1  0
 11 12  1  0
 13 14  1  0
 13 31  1  0
 14 15  1  0
 14 18  2  0
 15 16  1  0
 15 19  1  0
 16 17  2  0
 16 32  1  0
 17 18  1  0
 19 20  2  0
 19 24  1  0
 20 21  1  0
 20 33  1  0
 21 22  2  0
 21 34  1  0
 22 23  1  0
 22 35  1  0
 23 24  2  0
 23 36  1  0
 24 37  1  0
M  END
$$$$
