LIG(B-306)
     RDKit          3D

 35 37  0  0  0  0  0  0  0  0999 V2000
  -11.1768    0.5895  -23.2423 C   0  0  1  0  0  0  0  0  0  0  0  0
  -11.8646   -2.1433  -22.6675 C   0  0  1  0  0  0  0  0  0  0  0  0
   -9.4348    0.0721  -21.5671 C   0  0  0  0  0  0  0  0  0  0  0  0
   -8.5021   -0.9330  -20.9130 C   0  0  1  0  0  0  0  0  0  0  0  0
   -5.7058    0.6494  -21.2210 C   0  0  0  0  0  0  0  0  0  0  0  0
   -6.1052    0.7328  -18.8187 C   0  0  0  0  0  0  0  0  0  0  0  0
   -4.9228    1.4548  -18.6021 C   0  0  0  0  0  0  0  0  0  0  0  0
   -4.1753    1.7539  -19.7054 C   0  0  0  0  0  0  0  0  0  0  0  0
   -4.5573    1.3623  -20.9914 C   0  0  0  0  0  0  0  0  0  0  0  0
   -6.4652    0.3334  -20.0907 C   0  0  0  0  0  0  0  0  0  0  0  0
  -10.4361   -1.7234  -22.9252 C   0  0  1  0  0  0  0  0  0  0  0  0
  -10.2882   -0.3265  -22.5234 N   0  0  0  0  0  0  0  0  0  0  0  0
   -7.6612   -0.2943  -19.9206 N   0  0  0  0  0  0  0  0  0  0  0  0
  -12.6305    0.1903  -23.0576 C   0  0  1  0  0  0  0  0  0  0  0  0
   -7.9810   -0.3514  -18.5969 N   0  0  0  0  0  0  0  0  0  0  0  0
  -13.6624   -1.7081  -24.3382 C   0  0  0  0  0  0  0  0  0  0  0  0
  -12.8182   -1.2585  -23.4141 C   0  0  0  0  0  0  0  0  0  0  0  0
   -7.0697    0.3034  -17.9327 N   0  0  0  0  0  0  0  0  0  0  0  0
   -9.3564    1.2445  -21.2454 O   0  0  0  0  0  0  0  0  0  0  0  0
  -11.0316    1.6093  -22.8563 H   0  0  0  0  0  0  0  0  0  0  0  0
  -10.9298    0.5643  -24.3139 H   0  0  0  0  0  0  0  0  0  0  0  0
  -12.0011   -3.1832  -22.9993 H   0  0  0  0  0  0  0  0  0  0  0  0
  -12.0735   -2.0719  -21.5899 H   0  0  0  0  0  0  0  0  0  0  0  0
   -9.1019   -1.7158  -20.4258 H   0  0  0  0  0  0  0  0  0  0  0  0
   -7.8645   -1.3874  -21.6857 H   0  0  0  0  0  0  0  0  0  0  0  0
   -6.0055    0.3503  -22.2146 H   0  0  0  0  0  0  0  0  0  0  0  0
   -4.6181    1.7593  -17.6118 H   0  0  0  0  0  0  0  0  0  0  0  0
   -3.2589    2.3114  -19.5798 H   0  0  0  0  0  0  0  0  0  0  0  0
   -3.9296    1.6290  -21.8287 H   0  0  0  0  0  0  0  0  0  0  0  0
   -9.7517   -2.3536  -22.3384 H   0  0  0  0  0  0  0  0  0  0  0  0
  -10.2049   -1.8288  -23.9954 H   0  0  0  0  0  0  0  0  0  0  0  0
  -12.9202    0.3471  -22.0081 H   0  0  0  0  0  0  0  0  0  0  0  0
  -13.2636    0.8103  -23.7093 H   0  0  0  0  0  0  0  0  0  0  0  0
  -13.6843   -2.7595  -24.5840 H   0  0  0  0  0  0  0  0  0  0  0  0
  -14.3262   -1.0216  -24.8429 H   0  0  0  0  0  0  0  0  0  0  0  0
  1 12  1  0
  1 14  1  0
  1 20  1  1
  1 21  1  0
  2 11  1  0
  2 17  1  0
  2 22  1  6
  2 23  1  0
  3  4  1  0
  3 12  1  0
  3 19  2  0
  4 13  1  0
  4 24  1  1
  4 25  1  0
  5  9  1  0
  5 10  2  0
  5 26  1  0
  6  7  2  0
  6 10  1  0
  6 18  1  0
  7  8  1  0
  7 27  1  0
  8  9  2  0
  8 28  1  0
  9 29  1  0
 10 13  1  0
 11 12  1  0
 11 30  1  1
 11 31  1  0
 13 15  1  0
 14 17  1  0
 14 32  1  1
 14 33  1  0
 15 18  2  0
 16 17  2  0
 16 34  1  0
 16 35  1  0
M  END
$$$$
