LIG(A-305)
     RDKit          3D

 65 66  0  0  1  0  0  0  0  0999 V2000
    5.6371   -2.5276   21.4934 O   0  0  0  0  0  0  0  0  0  0  0  0
    6.8090   -2.4273   21.1671 C   0  0  0  0  0  0  0  0  0  0  0  0
    7.3391   -3.2419   20.0045 C   0  0  1  0  0  0  0  0  0  0  0  0
    8.0568   -4.4992   20.4153 C   0  0  1  0  0  0  0  0  0  0  0  0
    7.5997   -1.4266   21.6602 N   0  0  0  0  0  0  0  0  0  0  0  0
    8.8369   -1.6925   22.3491 C   0  0  0  0  0  0  0  0  0  0  0  0
    8.8583   -1.8335   23.7392 C   0  0  0  0  0  0  0  0  0  0  0  0
   10.0655   -1.9095   24.4160 C   0  0  0  0  0  0  0  0  0  0  0  0
   11.2793   -1.8504   23.7337 C   0  0  0  0  0  0  0  0  0  0  0  0
   12.6045   -1.8323   24.5084 C   0  0  1  0  0  0  0  0  0  0  0  0
   12.6663   -2.9715   25.5371 C   0  0  1  0  0  0  0  0  0  0  0  0
   13.8044   -1.9813   23.5752 C   0  0  1  0  0  0  0  0  0  0  0  0
   12.7440   -0.5037   25.2504 C   0  0  1  0  0  0  0  0  0  0  0  0
   11.2440   -1.7464   22.3446 C   0  0  0  0  0  0  0  0  0  0  0  0
   10.0438   -1.6754   21.6578 C   0  0  0  0  0  0  0  0  0  0  0  0
    7.1839   -0.0179   21.4343 C   0  0  2  0  0  0  0  0  0  0  0  0
    6.5365    0.2908   20.0893 C   0  0  0  0  0  0  0  0  0  0  0  0
    5.3561    1.0162   20.0200 C   0  0  0  0  0  0  0  0  0  0  0  0
    6.6939    0.3582   17.6832 N   0  0  0  0  0  0  0  0  0  0  0  0
    4.8557    1.4141   18.7949 C   0  0  0  0  0  0  0  0  0  0  0  0
    5.5586    1.0647   17.6559 C   0  0  0  0  0  0  0  0  0  0  0  0
    7.1554   -0.0137   18.8823 C   0  0  0  0  0  0  0  0  0  0  0  0
    8.2596    1.0148   21.8064 C   0  0  0  0  0  0  0  0  0  0  0  0
    9.1292    1.3327   20.9979 O   0  0  0  0  0  0  0  0  0  0  0  0
    8.1516    1.5616   23.0170 N   0  0  0  0  0  0  0  0  0  0  0  0
    8.9331    2.7173   23.4370 C   0  0  1  0  0  0  0  0  0  0  0  0
   10.3234    2.3423   23.9080 C   0  0  1  0  0  0  0  0  0  0  0  0
   11.3530    2.7901   22.9154 C   0  0  0  0  0  0  0  0  0  0  0  0
   11.3108    2.5432   21.7386 O   0  0  0  0  0  0  0  0  0  0  0  0
   12.3118    3.5209   23.4867 O   0  0  0  0  0  0  0  0  0  0  0  0
   13.4034    3.9518   22.6172 C   0  0  1  0  0  0  0  0  0  0  0  0
   13.4367    5.3978   22.5861 C   0  0  1  0  0  0  0  0  0  0  0  0
    6.4906   -3.5217   19.3628 H   0  0  0  0  0  0  0  0  0  0  0  0
    8.0395   -2.6146   19.4335 H   0  0  0  0  0  0  0  0  0  0  0  0
    8.4090   -5.0306   19.5187 H   0  0  0  0  0  0  0  0  0  0  0  0
    8.9175   -4.2396   21.0492 H   0  0  0  0  0  0  0  0  0  0  0  0
    7.3686   -5.1468   20.9785 H   0  0  0  0  0  0  0  0  0  0  0  0
    7.9300   -1.8836   24.2888 H   0  0  0  0  0  0  0  0  0  0  0  0
   10.0655   -2.0164   25.4907 H   0  0  0  0  0  0  0  0  0  0  0  0
   13.6258   -2.9303   26.0736 H   0  0  0  0  0  0  0  0  0  0  0  0
   11.8400   -2.8623   26.2551 H   0  0  0  0  0  0  0  0  0  0  0  0
   12.5770   -3.9380   25.0195 H   0  0  0  0  0  0  0  0  0  0  0  0
   14.7327   -1.9638   24.1651 H   0  0  0  0  0  0  0  0  0  0  0  0
   13.7317   -2.9365   23.0344 H   0  0  0  0  0  0  0  0  0  0  0  0
   13.8129   -1.1511   22.8536 H   0  0  0  0  0  0  0  0  0  0  0  0
   13.6937   -0.4910   25.8054 H   0  0  0  0  0  0  0  0  0  0  0  0
   12.7319    0.3239   24.5258 H   0  0  0  0  0  0  0  0  0  0  0  0
   11.9066   -0.3872   25.9541 H   0  0  0  0  0  0  0  0  0  0  0  0
   12.1717   -1.7205   21.7924 H   0  0  0  0  0  0  0  0  0  0  0  0
   10.0447   -1.6065   20.5801 H   0  0  0  0  0  0  0  0  0  0  0  0
    6.3815    0.1551   22.1666 H   0  0  0  0  0  0  0  0  0  0  0  0
    4.8267    1.2708   20.9263 H   0  0  0  0  0  0  0  0  0  0  0  0
    3.9400    1.9829   18.7284 H   0  0  0  0  0  0  0  0  0  0  0  0
    5.1715    1.3777   16.6975 H   0  0  0  0  0  0  0  0  0  0  0  0
    8.0690   -0.5886   18.9150 H   0  0  0  0  0  0  0  0  0  0  0  0
    7.5051    1.1608   23.6662 H   0  0  0  0  0  0  0  0  0  0  0  0
    9.0242    3.4087   22.5863 H   0  0  0  0  0  0  0  0  0  0  0  0
    8.4053    3.2183   24.2619 H   0  0  0  0  0  0  0  0  0  0  0  0
   10.5201    2.8255   24.8764 H   0  0  0  0  0  0  0  0  0  0  0  0
   10.3837    1.2501   24.0242 H   0  0  0  0  0  0  0  0  0  0  0  0
   14.3583    3.5690   23.0064 H   0  0  0  0  0  0  0  0  0  0  0  0
   13.2402    3.5646   21.6006 H   0  0  0  0  0  0  0  0  0  0  0  0
   14.2563    5.7323   21.9332 H   0  0  0  0  0  0  0  0  0  0  0  0
   12.4803    5.7782   22.1980 H   0  0  0  0  0  0  0  0  0  0  0  0
   13.5984    5.7826   23.6038 H   0  0  0  0  0  0  0  0  0  0  0  0
  1  2  2  0
  2  3  1  0
  2  5  1  0
  3  4  1  0
  3 33  1  6
  3 34  1  0
  4 35  1  6
  4 36  1  0
  4 37  1  0
  5  6  1  0
  5 16  1  0
  6  7  2  0
  6 15  1  0
  7  8  1  0
  7 38  1  0
  8  9  2  0
  8 39  1  0
 10  9  1  6
  9 14  1  0
 10 11  1  0
 10 12  1  0
 10 13  1  0
 11 40  1  1
 11 41  1  0
 11 42  1  0
 12 43  1  1
 12 44  1  0
 12 45  1  0
 13 46  1  1
 13 47  1  0
 13 48  1  0
 14 15  2  0
 14 49  1  0
 15 50  1  0
 16 17  1  0
 16 23  1  0
 16 51  1  1
 17 18  2  0
 17 22  1  0
 18 20  1  0
 18 52  1  0
 19 21  1  0
 19 22  2  0
 20 21  2  0
 20 53  1  0
 21 54  1  0
 22 55  1  0
 23 24  2  0
 23 25  1  0
 25 26  1  0
 25 56  1  0
 26 27  1  0
 26 57  1  6
 26 58  1  0
 27 28  1  0
 27 59  1  1
 27 60  1  0
 28 29  2  0
 28 30  1  0
 30 31  1  0
 31 32  1  0
 31 61  1  1
 31 62  1  0
 32 63  1  6
 32 64  1  0
 32 65  1  0
M  END
$$$$
