LIG(B-307)
     RDKit          3D

 38 40  0  0  0  0  0  0  0  0999 V2000
   -5.3240   -0.5857  -19.7172 C   0  0  0  0  0  0  0  0  0  0  0  0
   -5.5103   -1.7464  -20.6601 C   0  0  0  0  0  0  0  0  0  0  0  0
   -7.0701   -0.3933  -22.1100 C   0  0  1  0  0  0  0  0  0  0  0  0
   -8.5506   -0.7456  -22.1911 C   0  0  1  0  0  0  0  0  0  0  0  0
   -7.9977   -3.0515  -22.7561 C   0  0  1  0  0  0  0  0  0  0  0  0
   -6.5151   -2.7130  -22.6579 C   0  0  1  0  0  0  0  0  0  0  0  0
  -10.0748   -2.0531  -23.6074 C   0  0  0  0  0  0  0  0  0  0  0  0
   -4.8939   -2.7890  -20.3756 O   0  0  0  0  0  0  0  0  0  0  0  0
  -11.1560   -1.2119  -23.2716 C   0  0  0  0  0  0  0  0  0  0  0  0
  -12.4336   -1.4457  -23.7914 C   0  0  0  0  0  0  0  0  0  0  0  0
  -12.6309   -2.5278  -24.6470 C   0  0  0  0  0  0  0  0  0  0  0  0
  -11.5797   -3.3722  -24.9926 C   0  0  0  0  0  0  0  0  0  0  0  0
  -10.3182   -3.1325  -24.4758 C   0  0  0  0  0  0  0  0  0  0  0  0
   -4.0575    1.4683  -19.4192 C   0  0  0  0  0  0  0  0  0  0  0  0
   -5.7380    0.7294  -17.7375 C   0  0  0  0  0  0  0  0  0  0  0  0
   -6.0069   -0.4238  -18.5602 C   0  0  0  0  0  0  0  0  0  0  0  0
   -4.3871    0.3318  -20.1329 N   0  0  0  0  0  0  0  0  0  0  0  0
   -4.7572    1.6144  -18.2300 N   0  0  0  0  0  0  0  0  0  0  0  0
   -6.3147   -1.5953  -21.7307 N   0  0  0  0  0  0  0  0  0  0  0  0
   -8.7631   -1.8654  -23.1273 N   0  0  0  0  0  0  0  0  0  0  0  0
   -3.2159    2.2674  -19.8186 O   0  0  0  0  0  0  0  0  0  0  0  0
   -6.3126    0.9511  -16.6773 O   0  0  0  0  0  0  0  0  0  0  0  0
  -14.2265   -2.8686  -25.3348 Cl  0  0  0  0  0  0  0  0  0  0  0  0
   -6.7223   -0.0323  -23.0892 H   0  0  0  0  0  0  0  0  0  0  0  0
   -6.9183    0.3918  -21.3547 H   0  0  0  0  0  0  0  0  0  0  0  0
   -8.9094   -1.0353  -21.1924 H   0  0  0  0  0  0  0  0  0  0  0  0
   -9.1132    0.1320  -22.5425 H   0  0  0  0  0  0  0  0  0  0  0  0
   -8.1426   -3.8306  -23.5191 H   0  0  0  0  0  0  0  0  0  0  0  0
   -8.3510   -3.4216  -21.7824 H   0  0  0  0  0  0  0  0  0  0  0  0
   -5.9644   -3.5923  -22.2924 H   0  0  0  0  0  0  0  0  0  0  0  0
   -6.1391   -2.4324  -23.6528 H   0  0  0  0  0  0  0  0  0  0  0  0
  -10.9957   -0.3773  -22.6053 H   0  0  0  0  0  0  0  0  0  0  0  0
  -13.2564   -0.7958  -23.5329 H   0  0  0  0  0  0  0  0  0  0  0  0
  -11.7468   -4.2065  -25.6577 H   0  0  0  0  0  0  0  0  0  0  0  0
   -9.5034   -3.7882  -24.7450 H   0  0  0  0  0  0  0  0  0  0  0  0
   -6.7456   -1.1507  -18.2562 H   0  0  0  0  0  0  0  0  0  0  0  0
   -3.9259    0.1689  -21.0051 H   0  0  0  0  0  0  0  0  0  0  0  0
   -4.5474    2.4182  -17.6730 H   0  0  0  0  0  0  0  0  0  0  0  0
  1  2  1  0
  1 16  2  0
  1 17  1  0
  2  8  2  0
  2 19  1  0
  3  4  1  0
  3 19  1  0
  3 24  1  6
  3 25  1  0
  4 20  1  0
  4 26  1  1
  4 27  1  0
  5  6  1  0
  5 20  1  0
  5 28  1  6
  5 29  1  0
  6 19  1  0
  6 30  1  1
  6 31  1  0
  7  9  2  0
  7 13  1  0
  7 20  1  0
  9 10  1  0
  9 32  1  0
 10 11  2  0
 10 33  1  0
 11 12  1  0
 11 23  1  0
 12 13  2  0
 12 34  1  0
 13 35  1  0
 14 17  1  0
 14 18  1  0
 14 21  2  0
 15 16  1  0
 15 18  1  0
 15 22  2  0
 16 36  1  0
 17 37  1  0
 18 38  1  0
M  END
$$$$
