LIG(A-305)
     RDKit          3D

 65 66  0  0  1  0  0  0  0  0999 V2000
    5.6365   -2.5273   21.4936 O   0  0  0  0  0  0  0  0  0  0  0  0
    6.8085   -2.4275   21.1673 C   0  0  0  0  0  0  0  0  0  0  0  0
    7.3391   -3.2416   20.0042 C   0  0  1  0  0  0  0  0  0  0  0  0
    8.0571   -4.4996   20.4152 C   0  0  1  0  0  0  0  0  0  0  0  0
    7.5997   -1.4265   21.6601 N   0  0  0  0  0  0  0  0  0  0  0  0
    8.8368   -1.6926   22.3488 C   0  0  0  0  0  0  0  0  0  0  0  0
    8.8581   -1.8335   23.7388 C   0  0  0  0  0  0  0  0  0  0  0  0
   10.0662   -1.9096   24.4165 C   0  0  0  0  0  0  0  0  0  0  0  0
   11.2791   -1.8507   23.7342 C   0  0  0  0  0  0  0  0  0  0  0  0
   12.6043   -1.8318   24.5089 C   0  0  1  0  0  0  0  0  0  0  0  0
   12.6664   -2.9717   25.5370 C   0  0  1  0  0  0  0  0  0  0  0  0
   13.8050   -1.9810   23.5757 C   0  0  1  0  0  0  0  0  0  0  0  0
   12.7436   -0.5038   25.2508 C   0  0  1  0  0  0  0  0  0  0  0  0
   11.2438   -1.7458   22.3453 C   0  0  0  0  0  0  0  0  0  0  0  0
   10.0436   -1.6757   21.6575 C   0  0  0  0  0  0  0  0  0  0  0  0
    7.1837   -0.0185   21.4341 C   0  0  2  0  0  0  0  0  0  0  0  0
    6.5365    0.2905   20.0892 C   0  0  0  0  0  0  0  0  0  0  0  0
    5.3555    1.0156   20.0204 C   0  0  0  0  0  0  0  0  0  0  0  0
    6.6939    0.3583   17.6832 N   0  0  0  0  0  0  0  0  0  0  0  0
    4.8563    1.4146   18.7945 C   0  0  0  0  0  0  0  0  0  0  0  0
    5.5590    1.0644   17.6564 C   0  0  0  0  0  0  0  0  0  0  0  0
    7.1552   -0.0136   18.8831 C   0  0  0  0  0  0  0  0  0  0  0  0
    8.2589    1.0155   21.8058 C   0  0  0  0  0  0  0  0  0  0  0  0
    9.1298    1.3323   20.9975 O   0  0  0  0  0  0  0  0  0  0  0  0
    8.1523    1.5615   23.0177 N   0  0  0  0  0  0  0  0  0  0  0  0
    8.9335    2.7175   23.4365 C   0  0  1  0  0  0  0  0  0  0  0  0
   10.3235    2.3424   23.9082 C   0  0  1  0  0  0  0  0  0  0  0  0
   11.3534    2.7902   22.9159 C   0  0  0  0  0  0  0  0  0  0  0  0
   11.3111    2.5432   21.7390 O   0  0  0  0  0  0  0  0  0  0  0  0
   12.3126    3.5212   23.4867 O   0  0  0  0  0  0  0  0  0  0  0  0
   13.4034    3.9520   22.6174 C   0  0  1  0  0  0  0  0  0  0  0  0
   13.4365    5.3980   22.5863 C   0  0  1  0  0  0  0  0  0  0  0  0
    6.4909   -3.5212   19.3622 H   0  0  0  0  0  0  0  0  0  0  0  0
    8.0396   -2.6141   19.4337 H   0  0  0  0  0  0  0  0  0  0  0  0
    8.4096   -5.0307   19.5187 H   0  0  0  0  0  0  0  0  0  0  0  0
    8.9175   -4.2401   21.0494 H   0  0  0  0  0  0  0  0  0  0  0  0
    7.3688   -5.1473   20.9780 H   0  0  0  0  0  0  0  0  0  0  0  0
    7.9296   -1.8835   24.2882 H   0  0  0  0  0  0  0  0  0  0  0  0
   10.0663   -2.0162   25.4912 H   0  0  0  0  0  0  0  0  0  0  0  0
   13.6257   -2.9303   26.0737 H   0  0  0  0  0  0  0  0  0  0  0  0
   11.8399   -2.8635   26.2548 H   0  0  0  0  0  0  0  0  0  0  0  0
   12.5778   -3.9380   25.0188 H   0  0  0  0  0  0  0  0  0  0  0  0
   14.7332   -1.9629   24.1658 H   0  0  0  0  0  0  0  0  0  0  0  0
   13.7328   -2.9364   23.0353 H   0  0  0  0  0  0  0  0  0  0  0  0
   13.8135   -1.1511   22.8537 H   0  0  0  0  0  0  0  0  0  0  0  0
   13.6933   -0.4910   25.8056 H   0  0  0  0  0  0  0  0  0  0  0  0
   12.7311    0.3239   24.5264 H   0  0  0  0  0  0  0  0  0  0  0  0
   11.9062   -0.3875   25.9547 H   0  0  0  0  0  0  0  0  0  0  0  0
   12.1718   -1.7185   21.7933 H   0  0  0  0  0  0  0  0  0  0  0  0
   10.0449   -1.6077   20.5796 H   0  0  0  0  0  0  0  0  0  0  0  0
    6.3812    0.1545   22.1662 H   0  0  0  0  0  0  0  0  0  0  0  0
    4.8252    1.2689   20.9265 H   0  0  0  0  0  0  0  0  0  0  0  0
    3.9415    1.9848   18.7276 H   0  0  0  0  0  0  0  0  0  0  0  0
    5.1717    1.3769   16.6978 H   0  0  0  0  0  0  0  0  0  0  0  0
    8.0689   -0.5883   18.9160 H   0  0  0  0  0  0  0  0  0  0  0  0
    7.5074    1.1596   23.6679 H   0  0  0  0  0  0  0  0  0  0  0  0
    9.0248    3.4079   22.5850 H   0  0  0  0  0  0  0  0  0  0  0  0
    8.4055    3.2195   24.2606 H   0  0  0  0  0  0  0  0  0  0  0  0
   10.5198    2.8256   24.8766 H   0  0  0  0  0  0  0  0  0  0  0  0
   10.3839    1.2502   24.0246 H   0  0  0  0  0  0  0  0  0  0  0  0
   14.3584    3.5693   23.0065 H   0  0  0  0  0  0  0  0  0  0  0  0
   13.2401    3.5648   21.6008 H   0  0  0  0  0  0  0  0  0  0  0  0
   14.2560    5.7326   21.9332 H   0  0  0  0  0  0  0  0  0  0  0  0
   12.4801    5.7783   22.1983 H   0  0  0  0  0  0  0  0  0  0  0  0
   13.5984    5.7829   23.6039 H   0  0  0  0  0  0  0  0  0  0  0  0
  1  2  2  0
  2  3  1  0
  2  5  1  0
  3  4  1  0
  3 33  1  6
  3 34  1  0
  4 35  1  6
  4 36  1  0
  4 37  1  0
  5  6  1  0
  5 16  1  0
  6  7  2  0
  6 15  1  0
  7  8  1  0
  7 38  1  0
  8  9  2  0
  8 39  1  0
 10  9  1  6
  9 14  1  0
 10 11  1  0
 10 12  1  0
 10 13  1  0
 11 40  1  1
 11 41  1  0
 11 42  1  0
 12 43  1  1
 12 44  1  0
 12 45  1  0
 13 46  1  1
 13 47  1  0
 13 48  1  0
 14 15  2  0
 14 49  1  0
 15 50  1  0
 16 17  1  0
 16 23  1  0
 16 51  1  1
 17 18  2  0
 17 22  1  0
 18 20  1  0
 18 52  1  0
 19 21  1  0
 19 22  2  0
 20 21  2  0
 20 53  1  0
 21 54  1  0
 22 55  1  0
 23 24  2  0
 23 25  1  0
 25 26  1  0
 25 56  1  0
 26 27  1  0
 26 57  1  6
 26 58  1  0
 27 28  1  0
 27 59  1  1
 27 60  1  0
 28 29  2  0
 28 30  1  0
 30 31  1  0
 31 32  1  0
 31 61  1  1
 31 62  1  0
 32 63  1  6
 32 64  1  0
 32 65  1  0
M  END
$$$$
