LIG(A-306)
     RDKit          3D

 42 46  0  0  1  0  0  0  0  0999 V2000
    9.2089    1.3561   21.1989 O   0  0  0  0  0  0  0  0  0  0  0  0
    8.7596    0.3084   21.6276 C   0  0  0  0  0  0  0  0  0  0  0  0
    9.2025   -0.4158   22.9044 C   0  0  2  0  0  0  0  0  0  0  0  0
    8.4978    0.2944   24.0891 C   0  0  1  0  0  0  0  0  0  0  0  0
    9.4605    0.6963   25.1907 C   0  0  1  0  0  0  0  0  0  0  0  0
   10.6200    1.3658   24.6695 O   0  0  0  0  0  0  0  0  0  0  0  0
   10.7343   -0.3835   23.0003 C   0  0  0  0  0  0  0  0  0  0  0  0
   11.3451    0.5475   23.8433 C   0  0  0  0  0  0  0  0  0  0  0  0
   12.7219    0.6631   23.9311 C   0  0  0  0  0  0  0  0  0  0  0  0
   13.5177   -0.1502   23.1467 C   0  0  0  0  0  0  0  0  0  0  0  0
   11.5494   -1.2107   22.2270 C   0  0  0  0  0  0  0  0  0  0  0  0
   12.9233   -1.0444   22.2780 C   0  0  0  0  0  0  0  0  0  0  0  0
   13.9113   -1.8223   21.0715 Cl  0  0  0  0  0  0  0  0  0  0  0  0
    7.7350   -0.4454   21.0425 N   0  0  0  0  0  0  0  0  0  0  0  0
    7.5432   -1.6743   21.6686 C   0  0  0  0  0  0  0  0  0  0  0  0
    6.6307   -2.4431   21.4034 O   0  0  0  0  0  0  0  0  0  0  0  0
    8.6172   -1.8321   22.7129 C   0  0  1  0  0  0  0  0  0  0  0  0
    6.9168    0.0286   19.9567 C   0  0  0  0  0  0  0  0  0  0  0  0
    5.8157    0.8808   20.2387 C   0  0  0  0  0  0  0  0  0  0  0  0
    5.3718    1.2180   21.5453 C   0  0  0  0  0  0  0  0  0  0  0  0
    4.3002    2.0460   21.7308 C   0  0  0  0  0  0  0  0  0  0  0  0
    3.6229    2.5820   20.6430 C   0  0  0  0  0  0  0  0  0  0  0  0
    4.0151    2.2910   19.3695 C   0  0  0  0  0  0  0  0  0  0  0  0
    5.1163    1.4333   19.1307 C   0  0  0  0  0  0  0  0  0  0  0  0
    5.5721    1.0957   17.8305 C   0  0  0  0  0  0  0  0  0  0  0  0
    6.6022    0.2962   17.5817 N   0  0  0  0  0  0  0  0  0  0  0  0
    7.2529   -0.2231   18.6332 C   0  0  0  0  0  0  0  0  0  0  0  0
    7.9997    1.1992   23.7104 H   0  0  0  0  0  0  0  0  0  0  0  0
    7.7460   -0.3887   24.5113 H   0  0  0  0  0  0  0  0  0  0  0  0
    8.9424    1.3720   25.8871 H   0  0  0  0  0  0  0  0  0  0  0  0
    9.7831   -0.2074   25.7285 H   0  0  0  0  0  0  0  0  0  0  0  0
   13.1685    1.3799   24.6042 H   0  0  0  0  0  0  0  0  0  0  0  0
   14.5938   -0.0871   23.2125 H   0  0  0  0  0  0  0  0  0  0  0  0
   11.1140   -1.9716   21.5961 H   0  0  0  0  0  0  0  0  0  0  0  0
    9.3950   -2.5278   22.3651 H   0  0  0  0  0  0  0  0  0  0  0  0
    8.1881   -2.2034   23.6553 H   0  0  0  0  0  0  0  0  0  0  0  0
    5.8881    0.8147   22.4038 H   0  0  0  0  0  0  0  0  0  0  0  0
    3.9768    2.2857   22.7330 H   0  0  0  0  0  0  0  0  0  0  0  0
    2.7784    3.2348   20.8070 H   0  0  0  0  0  0  0  0  0  0  0  0
    3.4804    2.7192   18.5345 H   0  0  0  0  0  0  0  0  0  0  0  0
    5.0459    1.5172   16.9867 H   0  0  0  0  0  0  0  0  0  0  0  0
    8.0898   -0.8773   18.4386 H   0  0  0  0  0  0  0  0  0  0  0  0
  1  2  2  0
  3  2  1  6
  2 14  1  0
  3  4  1  0
  3  7  1  0
  3 17  1  0
  4  5  1  0
  4 28  1  6
  4 29  1  0
  5  6  1  0
  5 30  1  1
  5 31  1  0
  6  8  1  0
  7  8  2  0
  7 11  1  0
  8  9  1  0
  9 10  2  0
  9 32  1  0
 10 12  1  0
 10 33  1  0
 11 12  2  0
 11 34  1  0
 12 13  1  0
 14 15  1  0
 14 18  1  0
 15 16  2  0
 15 17  1  0
 17 35  1  6
 17 36  1  0
 18 19  2  0
 18 27  1  0
 19 20  1  0
 19 24  1  0
 20 21  2  0
 20 37  1  0
 21 22  1  0
 21 38  1  0
 22 23  2  0
 22 39  1  0
 23 24  1  0
 23 40  1  0
 24 25  2  0
 25 26  1  0
 25 41  1  0
 26 27  2  0
 27 42  1  0
M  END
$$$$
