LIG(A-305)
     RDKit          3D

 39 40  0  0  0  0  0  0  0  0999 V2000
   13.2827   -1.1088   22.5508 C   0  0  1  0  0  0  0  0  0  0  0  0
    7.3510    2.6894   29.3208 C   0  0  0  0  0  0  0  0  0  0  0  0
    6.1391    2.5904   29.9760 C   0  0  0  0  0  0  0  0  0  0  0  0
    5.6333    3.7034   30.8460 C   0  0  1  0  0  0  0  0  0  0  0  0
    5.4091    1.4284   29.8142 C   0  0  0  0  0  0  0  0  0  0  0  0
    5.8640    0.3853   29.0212 C   0  0  0  0  0  0  0  0  0  0  0  0
   11.7790   -0.1758   24.1860 C   0  0  1  0  0  0  0  0  0  0  0  0
   11.0703   -0.4507   25.4902 C   0  0  1  0  0  0  0  0  0  0  0  0
   10.7292   -2.7618   24.7714 C   0  0  1  0  0  0  0  0  0  0  0  0
   11.5030   -2.4338   23.5122 C   0  0  1  0  0  0  0  0  0  0  0  0
    8.8454   -1.4918   25.7847 C   0  0  0  0  0  0  0  0  0  0  0  0
    8.4335   -0.2457   26.5577 C   0  0  1  0  0  0  0  0  0  0  0  0
    7.0789    0.5043   28.3650 C   0  0  0  0  0  0  0  0  0  0  0  0
    7.8268    1.6674   28.5157 C   0  0  0  0  0  0  0  0  0  0  0  0
   12.4860   -1.3758   23.7480 N   0  0  1  0  0  0  0  0  0  0  0  0
   10.1243   -1.5627   25.3575 N   0  0  0  0  0  0  0  0  0  0  0  0
    8.0134   -2.3758   25.5749 O   0  0  0  0  0  0  0  0  0  0  0  0
    7.5077   -0.5437   27.5919 O   0  0  0  0  0  0  0  0  0  0  0  0
   14.0090   -0.3106   22.7636 H   0  0  0  0  0  0  0  0  0  0  0  0
   13.8187   -2.0230   22.2558 H   0  0  0  0  0  0  0  0  0  0  0  0
   12.6195   -0.7923   21.7322 H   0  0  0  0  0  0  0  0  0  0  0  0
    7.9421    3.5855   29.4389 H   0  0  0  0  0  0  0  0  0  0  0  0
    6.3613    4.5280   30.8477 H   0  0  0  0  0  0  0  0  0  0  0  0
    4.6706    4.0652   30.4557 H   0  0  0  0  0  0  0  0  0  0  0  0
    5.4966    3.3329   31.8727 H   0  0  0  0  0  0  0  0  0  0  0  0
    4.4592    1.3297   30.3186 H   0  0  0  0  0  0  0  0  0  0  0  0
    5.2752   -0.5139   28.9158 H   0  0  0  0  0  0  0  0  0  0  0  0
   11.0414    0.1133   23.4229 H   0  0  0  0  0  0  0  0  0  0  0  0
   12.5004    0.6426   24.3272 H   0  0  0  0  0  0  0  0  0  0  0  0
   11.8168   -0.7047   26.2572 H   0  0  0  0  0  0  0  0  0  0  0  0
   10.5216    0.4519   25.7972 H   0  0  0  0  0  0  0  0  0  0  0  0
    9.9332   -3.4798   24.5250 H   0  0  0  0  0  0  0  0  0  0  0  0
   11.4144   -3.2115   25.5051 H   0  0  0  0  0  0  0  0  0  0  0  0
   12.0264   -3.3381   23.1685 H   0  0  0  0  0  0  0  0  0  0  0  0
   10.7983   -2.1007   22.7361 H   0  0  0  0  0  0  0  0  0  0  0  0
    9.3307    0.2081   27.0040 H   0  0  0  0  0  0  0  0  0  0  0  0
    7.9697    0.4677   25.8606 H   0  0  0  0  0  0  0  0  0  0  0  0
    8.7740    1.7731   28.0076 H   0  0  0  0  0  0  0  0  0  0  0  0
   13.1002   -1.6694   24.4803 H   0  0  0  0  0  0  0  0  0  0  0  0
  1 15  1  0
  1 19  1  1
  1 20  1  0
  1 21  1  0
  2  3  2  0
  2 14  1  0
  2 22  1  0
  3  4  1  0
  3  5  1  0
  4 23  1  1
  4 24  1  0
  4 25  1  0
  5  6  2  0
  5 26  1  0
  6 13  1  0
  6 27  1  0
  7  8  1  0
  7 15  1  0
  7 28  1  6
  7 29  1  0
  8 16  1  0
  8 30  1  1
  8 31  1  0
  9 10  1  0
  9 16  1  0
  9 32  1  6
  9 33  1  0
 10 15  1  0
 10 34  1  6
 10 35  1  0
 11 12  1  0
 11 16  1  0
 11 17  2  0
 12 18  1  0
 12 36  1  1
 12 37  1  0
 13 14  2  0
 13 18  1  0
 14 38  1  0
 15 39  1  1
M  CHG  1  15   1
M  END
$$$$
