LIG(A-306)
     RDKit          3D

 54 58  0  0  1  0  0  0  0  0999 V2000
    9.1207    1.3098   21.2971 O   0  0  0  0  0  0  0  0  0  0  0  0
    8.6667    0.2632   21.7274 C   0  0  0  0  0  0  0  0  0  0  0  0
    7.6073   -0.4523   21.1856 N   0  0  0  0  0  0  0  0  0  0  0  0
    6.8080   -0.0146   20.0438 C   0  0  0  0  0  0  0  0  0  0  0  0
    5.6727    0.8239   20.2714 C   0  0  0  0  0  0  0  0  0  0  0  0
    5.1551    1.1447   21.5529 C   0  0  0  0  0  0  0  0  0  0  0  0
    4.0815    1.9773   21.6889 C   0  0  0  0  0  0  0  0  0  0  0  0
    3.4693    2.5365   20.5729 C   0  0  0  0  0  0  0  0  0  0  0  0
    3.9205    2.2456   19.3163 C   0  0  0  0  0  0  0  0  0  0  0  0
    5.0247    1.3799   19.1273 C   0  0  0  0  0  0  0  0  0  0  0  0
    5.5439    1.0451   17.8471 C   0  0  0  0  0  0  0  0  0  0  0  0
    6.6074    0.2706   17.6495 N   0  0  0  0  0  0  0  0  0  0  0  0
    7.2173   -0.2305   18.7340 C   0  0  0  0  0  0  0  0  0  0  0  0
    7.4636   -1.7318   21.7525 C   0  0  0  0  0  0  0  0  0  0  0  0
    6.5623   -2.5009   21.5161 O   0  0  0  0  0  0  0  0  0  0  0  0
    8.6260   -1.9295   22.6978 C   0  0  1  0  0  0  0  0  0  0  0  0
    9.1681   -0.5098   22.9555 C   0  0  1  0  0  0  0  0  0  0  0  0
   10.6925   -0.3985   23.0591 C   0  0  0  0  0  0  0  0  0  0  0  0
   11.5391   -1.1981   22.2859 C   0  0  0  0  0  0  0  0  0  0  0  0
   12.8895   -0.9093   22.2510 C   0  0  0  0  0  0  0  0  0  0  0  0
   13.9255   -1.8365   21.2030 Cl  0  0  0  0  0  0  0  0  0  0  0  0
   13.4328    0.1204   22.9791 C   0  0  0  0  0  0  0  0  0  0  0  0
   12.6047    0.8804   23.7824 C   0  0  0  0  0  0  0  0  0  0  0  0
   11.2384    0.6356   23.8381 C   0  0  0  0  0  0  0  0  0  0  0  0
   10.3883    1.4829   24.7571 C   0  0  1  0  0  0  0  0  0  0  0  0
    8.4738    0.1477   24.1793 C   0  0  1  0  0  0  0  0  0  0  0  0
    8.9756    1.5093   24.3503 N   0  0  1  0  0  0  0  0  0  0  0  0
    8.1803    2.3921   25.1996 C   0  0  1  0  0  0  0  0  0  0  0  0
    7.3411    3.4008   24.4338 C   0  0  0  0  0  0  0  0  0  0  0  0
    6.3256    3.8789   24.9345 O   0  0  0  0  0  0  0  0  0  0  0  0
    7.7482    3.7166   23.2081 N   0  0  0  0  0  0  0  0  0  0  0  0
    6.9606    4.5520   22.3201 C   0  0  1  0  0  0  0  0  0  0  0  0
    5.6172    0.7242   22.4339 H   0  0  0  0  0  0  0  0  0  0  0  0
    3.7034    2.2040   22.6749 H   0  0  0  0  0  0  0  0  0  0  0  0
    2.6311    3.2056   20.7000 H   0  0  0  0  0  0  0  0  0  0  0  0
    3.4296    2.6806   18.4583 H   0  0  0  0  0  0  0  0  0  0  0  0
    5.0425    1.4455   16.9784 H   0  0  0  0  0  0  0  0  0  0  0  0
    8.0903   -0.8468   18.5775 H   0  0  0  0  0  0  0  0  0  0  0  0
    8.2878   -2.3917   23.6369 H   0  0  0  0  0  0  0  0  0  0  0  0
    9.3986   -2.5616   22.2354 H   0  0  0  0  0  0  0  0  0  0  0  0
   11.1427   -2.0304   21.7234 H   0  0  0  0  0  0  0  0  0  0  0  0
   14.4903    0.3326   22.9247 H   0  0  0  0  0  0  0  0  0  0  0  0
   13.0263    1.6777   24.3766 H   0  0  0  0  0  0  0  0  0  0  0  0
   10.4546    1.0740   25.7761 H   0  0  0  0  0  0  0  0  0  0  0  0
   10.7773    2.5118   24.7489 H   0  0  0  0  0  0  0  0  0  0  0  0
    7.3868    0.1756   24.0129 H   0  0  0  0  0  0  0  0  0  0  0  0
    8.6913   -0.4396   25.0836 H   0  0  0  0  0  0  0  0  0  0  0  0
    8.9628    1.9218   23.4393 H   0  0  0  0  0  0  0  0  0  0  0  0
    7.5051    1.7711   25.8065 H   0  0  0  0  0  0  0  0  0  0  0  0
    8.8648    2.9436   25.8609 H   0  0  0  0  0  0  0  0  0  0  0  0
    8.6280    3.3663   22.8868 H   0  0  0  0  0  0  0  0  0  0  0  0
    7.4929    4.6772   21.3657 H   0  0  0  0  0  0  0  0  0  0  0  0
    5.9864    4.0752   22.1366 H   0  0  0  0  0  0  0  0  0  0  0  0
    6.8052    5.5367   22.7851 H   0  0  0  0  0  0  0  0  0  0  0  0
  1  2  2  0
  2  3  1  0
 17  2  1  6
  3  4  1  0
  3 14  1  0
  4  5  2  0
  4 13  1  0
  5  6  1  0
  5 10  1  0
  6  7  2  0
  6 33  1  0
  7  8  1  0
  7 34  1  0
  8  9  2  0
  8 35  1  0
  9 10  1  0
  9 36  1  0
 10 11  2  0
 11 12  1  0
 11 37  1  0
 12 13  2  0
 13 38  1  0
 14 15  2  0
 14 16  1  0
 16 17  1  0
 16 39  1  1
 16 40  1  0
 17 18  1  0
 17 26  1  0
 18 19  2  0
 18 24  1  0
 19 20  1  0
 19 41  1  0
 20 21  1  0
 20 22  2  0
 22 23  1  0
 22 42  1  0
 23 24  2  0
 23 43  1  0
 24 25  1  0
 25 27  1  0
 25 44  1  1
 25 45  1  0
 26 27  1  0
 26 46  1  6
 26 47  1  0
 27 28  1  0
 27 48  1  6
 28 29  1  0
 28 49  1  1
 28 50  1  0
 29 30  2  0
 29 31  1  0
 31 32  1  0
 31 51  1  0
 32 52  1  6
 32 53  1  0
 32 54  1  0
M  CHG  1  27   1
M  END
$$$$
