LIG(A-306)
     RDKit          3D

 38 41  0  0  1  0  0  0  0  0999 V2000
    9.2628    1.1196   21.0393 O   0  0  0  0  0  0  0  0  0  0  0  0
    8.7753    0.0143   21.2206 C   0  0  0  0  0  0  0  0  0  0  0  0
    9.4480   -1.2061   21.8248 C   0  0  1  0  0  0  0  0  0  0  0  0
   10.7641   -0.8887   22.5145 C   0  0  0  0  0  0  0  0  0  0  0  0
   10.9056    0.0755   23.5039 C   0  0  0  0  0  0  0  0  0  0  0  0
   12.1655    0.5243   23.8760 C   0  0  0  0  0  0  0  0  0  0  0  0
   13.2998    0.0209   23.2507 C   0  0  0  0  0  0  0  0  0  0  0  0
   11.9005   -1.4429   21.9426 C   0  0  0  0  0  0  0  0  0  0  0  0
   13.1413   -0.9503   22.2754 C   0  0  0  0  0  0  0  0  0  0  0  0
   14.5147   -1.4468   21.3232 Cl  0  0  0  0  0  0  0  0  0  0  0  0
    7.4993   -0.3699   20.9562 N   0  0  0  0  0  0  0  0  0  0  0  0
    7.0998   -1.5450   21.7588 C   0  0  1  0  0  0  0  0  0  0  0  0
    8.3131   -1.7836   22.6723 C   0  0  2  0  0  0  0  0  0  0  0  0
    6.6642    0.1891   19.9402 C   0  0  0  0  0  0  0  0  0  0  0  0
    5.5422    1.0110   20.2509 C   0  0  0  0  0  0  0  0  0  0  0  0
    5.1640    1.3816   21.5690 C   0  0  0  0  0  0  0  0  0  0  0  0
    4.1010    2.2113   21.7876 C   0  0  0  0  0  0  0  0  0  0  0  0
    3.3621    2.7073   20.7250 C   0  0  0  0  0  0  0  0  0  0  0  0
    3.6852    2.3797   19.4387 C   0  0  0  0  0  0  0  0  0  0  0  0
    4.7852    1.5319   19.1651 C   0  0  0  0  0  0  0  0  0  0  0  0
    5.2073    1.2085   17.8508 C   0  0  0  0  0  0  0  0  0  0  0  0
    6.2601    0.4575   17.5687 N   0  0  0  0  0  0  0  0  0  0  0  0
    6.9560   -0.0348   18.6003 C   0  0  0  0  0  0  0  0  0  0  0  0
    9.6550   -1.9166   21.0108 H   0  0  0  0  0  0  0  0  0  0  0  0
   10.0286    0.4795   23.9876 H   0  0  0  0  0  0  0  0  0  0  0  0
   12.2644    1.2670   24.6539 H   0  0  0  0  0  0  0  0  0  0  0  0
   14.2829    0.3787   23.5190 H   0  0  0  0  0  0  0  0  0  0  0  0
   11.8114   -2.2574   21.2390 H   0  0  0  0  0  0  0  0  0  0  0  0
    6.1983   -1.3288   22.3509 H   0  0  0  0  0  0  0  0  0  0  0  0
    6.9150   -2.4171   21.1145 H   0  0  0  0  0  0  0  0  0  0  0  0
    8.2102   -1.2462   23.6266 H   0  0  0  0  0  0  0  0  0  0  0  0
    8.4636   -2.8553   22.8695 H   0  0  0  0  0  0  0  0  0  0  0  0
    5.7249    1.0021   22.4103 H   0  0  0  0  0  0  0  0  0  0  0  0
    3.8337    2.4832   22.7980 H   0  0  0  0  0  0  0  0  0  0  0  0
    2.5226    3.3593   20.9159 H   0  0  0  0  0  0  0  0  0  0  0  0
    3.0958    2.7713   18.6228 H   0  0  0  0  0  0  0  0  0  0  0  0
    4.6318    1.6007   17.0253 H   0  0  0  0  0  0  0  0  0  0  0  0
    7.8112   -0.6544   18.3738 H   0  0  0  0  0  0  0  0  0  0  0  0
  1  2  2  0
  2  3  1  0
  2 11  1  0
  3  4  1  0
  3 13  1  0
  3 24  1  6
  4  5  2  0
  4  8  1  0
  5  6  1  0
  5 25  1  0
  6  7  2  0
  6 26  1  0
  7  9  1  0
  7 27  1  0
  8  9  2  0
  8 28  1  0
  9 10  1  0
 11 12  1  0
 11 14  1  0
 12 13  1  0
 12 29  1  1
 12 30  1  0
 13 31  1  1
 13 32  1  0
 14 15  2  0
 14 23  1  0
 15 16  1  0
 15 20  1  0
 16 17  2  0
 16 33  1  0
 17 18  1  0
 17 34  1  0
 18 19  2  0
 18 35  1  0
 19 20  1  0
 19 36  1  0
 20 21  2  0
 21 22  1  0
 21 37  1  0
 22 23  2  0
 23 38  1  0
M  END
$$$$
