LIG(A-305)
     RDKit          3D

 41 43  0  0  0  0  0  0  0  0999 V2000
    9.3479    0.7260   21.1081 O   0  0  0  0  0  0  0  0  0  0  0  0
    8.8729   -0.3480   21.4732 C   0  0  0  0  0  0  0  0  0  0  0  0
    7.4328   -0.7209   21.1763 C   0  0  1  0  0  0  0  0  0  0  0  0
    6.7778    0.0031   20.0183 C   0  0  0  0  0  0  0  0  0  0  0  0
    7.2507   -0.1440   18.7263 C   0  0  0  0  0  0  0  0  0  0  0  0
    6.6857    0.4070   17.6463 N   0  0  0  0  0  0  0  0  0  0  0  0
    5.5838    1.1371   17.8423 C   0  0  0  0  0  0  0  0  0  0  0  0
    5.0369    1.3612   19.0893 C   0  0  0  0  0  0  0  0  0  0  0  0
    5.6379    0.8002   20.2103 C   0  0  0  0  0  0  0  0  0  0  0  0
    5.0850    1.0973   21.5803 C   0  0  1  0  0  0  0  0  0  0  0  0
    9.5568   -1.2800   22.1872 N   0  0  0  0  0  0  0  0  0  0  0  0
   10.9079   -1.3121   22.6391 C   0  0  0  0  0  0  0  0  0  0  0  0
   11.2169   -1.9721   23.8531 C   0  0  0  0  0  0  0  0  0  0  0  0
   10.1209   -2.5719   24.6982 C   0  0  1  0  0  0  0  0  0  0  0  0
   10.5719   -2.9579   26.0392 N   0  0  1  0  0  0  0  0  0  0  0  0
   11.8619   -3.6770   25.9942 C   0  0  1  0  0  0  0  0  0  0  0  0
   12.9659   -2.7651   25.5161 C   0  0  1  0  0  0  0  0  0  0  0  0
   12.5629   -2.0562   24.2470 C   0  0  0  0  0  0  0  0  0  0  0  0
   13.5519   -1.4783   23.4540 C   0  0  0  0  0  0  0  0  0  0  0  0
   13.2289   -0.8283   22.2770 C   0  0  0  0  0  0  0  0  0  0  0  0
   11.9139   -0.7462   21.8620 C   0  0  0  0  0  0  0  0  0  0  0  0
    7.4038   -1.7985   20.9574 H   0  0  0  0  0  0  0  0  0  0  0  0
    6.8399   -0.5141   22.0794 H   0  0  0  0  0  0  0  0  0  0  0  0
    8.1364   -0.7446   18.5798 H   0  0  0  0  0  0  0  0  0  0  0  0
    5.0973    1.5733   16.9824 H   0  0  0  0  0  0  0  0  0  0  0  0
    4.1492    1.9675   19.1935 H   0  0  0  0  0  0  0  0  0  0  0  0
    5.8475    1.6168   22.1793 H   0  0  0  0  0  0  0  0  0  0  0  0
    4.1950    1.7367   21.4856 H   0  0  0  0  0  0  0  0  0  0  0  0
    4.8085    0.1552   22.0763 H   0  0  0  0  0  0  0  0  0  0  0  0
    9.0180   -2.0838   22.4396 H   0  0  0  0  0  0  0  0  0  0  0  0
    9.3134   -1.8321   24.8003 H   0  0  0  0  0  0  0  0  0  0  0  0
    9.7358   -3.4669   24.1877 H   0  0  0  0  0  0  0  0  0  0  0  0
   10.6793   -2.1336   26.5951 H   0  0  0  0  0  0  0  0  0  0  0  0
    9.8834   -3.5525   26.4544 H   0  0  0  0  0  0  0  0  0  0  0  0
   12.1068   -4.0424   27.0024 H   0  0  0  0  0  0  0  0  0  0  0  0
   11.7754   -4.5306   25.3058 H   0  0  0  0  0  0  0  0  0  0  0  0
   13.1790   -2.0178   26.2946 H   0  0  0  0  0  0  0  0  0  0  0  0
   13.8694   -3.3625   25.3241 H   0  0  0  0  0  0  0  0  0  0  0  0
   14.5850   -1.5387   23.7627 H   0  0  0  0  0  0  0  0  0  0  0  0
   14.0094   -0.3822   21.6785 H   0  0  0  0  0  0  0  0  0  0  0  0
   11.6675   -0.2446   20.9378 H   0  0  0  0  0  0  0  0  0  0  0  0
  1  2  2  0
  2  3  1  0
  2 11  1  0
  3  4  1  0
  3 22  1  6
  3 23  1  0
  4  5  2  0
  4  9  1  0
  5  6  1  0
  5 24  1  0
  6  7  2  0
  7  8  1  0
  7 25  1  0
  8  9  2  0
  8 26  1  0
  9 10  1  0
 10 27  1  1
 10 28  1  0
 10 29  1  0
 11 12  1  0
 11 30  1  0
 12 13  2  0
 12 21  1  0
 13 14  1  0
 13 18  1  0
 14 15  1  0
 14 31  1  1
 14 32  1  0
 15 16  1  0
 15 33  1  1
 15 34  1  0
 16 17  1  0
 16 35  1  1
 16 36  1  0
 17 18  1  0
 17 37  1  1
 17 38  1  0
 18 19  2  0
 19 20  1  0
 19 39  1  0
 20 21  2  0
 20 40  1  0
 21 41  1  0
M  CHG  1  15   1
M  END
$$$$
