LIG(A-305)
     RDKit          3D

 37 40  0  0  1  0  0  0  0  0999 V2000
    5.7564    0.6577   19.3562 N   0  0  0  0  0  0  0  0  0  0  0  0
    7.3404   -0.6004   20.6592 N   0  0  0  0  0  0  0  0  0  0  0  0
    6.7734    0.6546   17.4041 N   0  0  0  0  0  0  0  0  0  0  0  0
    5.3406    1.9868   21.4662 C   0  0  1  0  0  0  0  0  0  0  0  0
   12.8665    0.0452   23.4140 C   0  0  0  0  0  0  0  0  0  0  0  0
    8.9805    0.9145   21.0171 O   0  0  0  0  0  0  0  0  0  0  0  0
    6.9344   -0.0284   19.4692 C   0  0  0  0  0  0  0  0  0  0  0  0
   11.8856    0.6523   24.1800 C   0  0  0  0  0  0  0  0  0  0  0  0
    8.7004   -0.8275   22.6741 C   0  0  2  0  0  0  0  0  0  0  0  0
    7.7835   -0.2934   23.7921 C   0  0  1  0  0  0  0  0  0  0  0  0
    8.2776    1.0546   24.2561 C   0  0  1  0  0  0  0  0  0  0  0  0
    4.8425    1.0158   20.4562 C   0  0  1  0  0  0  0  0  0  0  0  0
   10.1694   -0.5596   22.9551 C   0  0  0  0  0  0  0  0  0  0  0  0
    5.7104    1.0437   18.0452 C   0  0  0  0  0  0  0  0  0  0  0  0
    4.2866    2.3948   20.4902 C   0  0  2  0  0  0  0  0  0  0  0  0
   11.1744   -1.1717   22.2061 C   0  0  0  0  0  0  0  0  0  0  0  0
   12.4984   -0.8638   22.4470 C   0  0  0  0  0  0  0  0  0  0  0  0
    7.5724   -0.0275   18.3121 N   0  0  0  0  0  0  0  0  0  0  0  0
    9.6396    0.9955   24.7531 O   0  0  0  0  0  0  0  0  0  0  0  0
    8.3734   -0.0885   21.3761 C   0  0  0  0  0  0  0  0  0  0  0  0
   10.5485    0.3504   23.9480 C   0  0  0  0  0  0  0  0  0  0  0  0
   13.7333   -1.6969   21.5500 Cl  0  0  0  0  0  0  0  0  0  0  0  0
    6.8625   -1.4100   21.0003 H   0  0  0  0  0  0  0  0  0  0  0  0
    5.0860    1.8554   22.5282 H   0  0  0  0  0  0  0  0  0  0  0  0
    6.3579    2.3964   21.3808 H   0  0  0  0  0  0  0  0  0  0  0  0
   13.9082    0.2818   23.5730 H   0  0  0  0  0  0  0  0  0  0  0  0
   12.1576    1.3560   24.9529 H   0  0  0  0  0  0  0  0  0  0  0  0
    8.5336   -1.9067   22.5418 H   0  0  0  0  0  0  0  0  0  0  0  0
    6.7578   -0.1940   23.4073 H   0  0  0  0  0  0  0  0  0  0  0  0
    7.7912   -0.9964   24.6381 H   0  0  0  0  0  0  0  0  0  0  0  0
    8.2388    1.7569   23.4103 H   0  0  0  0  0  0  0  0  0  0  0  0
    7.6214    1.4146   25.0621 H   0  0  0  0  0  0  0  0  0  0  0  0
    4.1863    0.2163   20.8305 H   0  0  0  0  0  0  0  0  0  0  0  0
    4.8980    1.5989   17.6002 H   0  0  0  0  0  0  0  0  0  0  0  0
    4.5269    3.1052   19.6855 H   0  0  0  0  0  0  0  0  0  0  0  0
    3.2551    2.5642   20.8328 H   0  0  0  0  0  0  0  0  0  0  0  0
   10.9169   -1.8861   21.4381 H   0  0  0  0  0  0  0  0  0  0  0  0
  1  7  1  0
  1 12  1  0
  1 14  1  0
  2  7  1  0
  2 20  1  0
  2 23  1  0
  3 14  2  0
  3 18  1  0
  4 12  1  0
  4 15  1  0
  4 24  1  1
  4 25  1  0
  5  8  2  0
  5 17  1  0
  5 26  1  0
  6 20  2  0
  7 18  2  0
  8 21  1  0
  8 27  1  0
  9 10  1  0
  9 13  1  0
  9 20  1  0
  9 28  1  6
 10 11  1  0
 10 29  1  6
 10 30  1  0
 11 19  1  0
 11 31  1  6
 11 32  1  0
 12 15  1  0
 12 33  1  1
 13 16  1  0
 13 21  2  0
 14 34  1  0
 15 35  1  6
 15 36  1  0
 16 17  2  0
 16 37  1  0
 17 22  1  0
 19 21  1  0
M  END
$$$$
