LIG(A-305)
     RDKit          3D

 41 42  0  0  0  0  0  0  0  0999 V2000
    8.8907    0.9181   21.0511 O   0  0  0  0  0  0  0  0  0  0  0  0
    8.3877   -0.1549   21.3622 C   0  0  0  0  0  0  0  0  0  0  0  0
    7.3367   -0.6930   20.7162 N   0  0  0  0  0  0  0  0  0  0  0  0
    6.5957   -0.0400   19.7082 C   0  0  0  0  0  0  0  0  0  0  0  0
    5.4567    0.7110   20.0562 C   0  0  0  0  0  0  0  0  0  0  0  0
    5.0007    0.8551   21.4863 C   0  0  1  0  0  0  0  0  0  0  0  0
    4.7956    1.3790   19.0332 C   0  0  0  0  0  0  0  0  0  0  0  0
    5.2776    1.2979   17.7422 C   0  0  0  0  0  0  0  0  0  0  0  0
    6.3636    0.5938   17.4002 N   0  0  0  0  0  0  0  0  0  0  0  0
    6.9976   -0.0681   18.3742 C   0  0  0  0  0  0  0  0  0  0  0  0
    8.9058   -0.9779   22.5272 C   0  0  1  0  0  0  0  0  0  0  0  0
   10.3538   -0.6548   22.8211 C   0  0  0  0  0  0  0  0  0  0  0  0
   11.3708   -1.3729   22.2051 C   0  0  0  0  0  0  0  0  0  0  0  0
   12.6718   -0.9289   22.3140 C   0  0  0  0  0  0  0  0  0  0  0  0
   13.9457   -1.8629   21.5910 Cl  0  0  0  0  0  0  0  0  0  0  0  0
   12.9928    0.2271   22.9969 C   0  0  0  0  0  0  0  0  0  0  0  0
   10.6808    0.4682   23.5730 C   0  0  0  0  0  0  0  0  0  0  0  0
   11.9878    0.9382   23.6419 C   0  0  0  0  0  0  0  0  0  0  0  0
   12.3219    2.1782   24.4378 C   0  0  1  0  0  0  0  0  0  0  0  0
   11.9789    3.4662   23.8448 N   0  0  0  0  0  0  0  0  0  0  0  0
   10.8109    3.9572   23.4198 C   0  0  0  0  0  0  0  0  0  0  0  0
    9.9628    3.2512   22.8719 O   0  0  0  0  0  0  0  0  0  0  0  0
   10.5859    5.4232   23.6487 C   0  0  1  0  0  0  0  0  0  0  0  0
    7.0615   -1.6207   20.9683 H   0  0  0  0  0  0  0  0  0  0  0  0
    5.7970    1.3283   22.0796 H   0  0  0  0  0  0  0  0  0  0  0  0
    4.0965    1.4805   21.5214 H   0  0  0  0  0  0  0  0  0  0  0  0
    4.7757   -0.1386   21.9011 H   0  0  0  0  0  0  0  0  0  0  0  0
    3.9096    1.9585   19.2467 H   0  0  0  0  0  0  0  0  0  0  0  0
    4.7496    1.8315   16.9657 H   0  0  0  0  0  0  0  0  0  0  0  0
    7.8661   -0.6547   18.1133 H   0  0  0  0  0  0  0  0  0  0  0  0
    8.3006   -0.7584   23.4192 H   0  0  0  0  0  0  0  0  0  0  0  0
    8.8193   -2.0460   22.2791 H   0  0  0  0  0  0  0  0  0  0  0  0
   11.1450   -2.2694   21.6468 H   0  0  0  0  0  0  0  0  0  0  0  0
   14.0146    0.5754   23.0297 H   0  0  0  0  0  0  0  0  0  0  0  0
    9.9035    0.9863   24.1149 H   0  0  0  0  0  0  0  0  0  0  0  0
   11.7931    2.1060   25.3997 H   0  0  0  0  0  0  0  0  0  0  0  0
   13.4075    2.1746   24.6151 H   0  0  0  0  0  0  0  0  0  0  0  0
   12.7527    4.0905   23.7376 H   0  0  0  0  0  0  0  0  0  0  0  0
    9.5968    5.7079   23.2605 H   0  0  0  0  0  0  0  0  0  0  0  0
   10.6320    5.6372   24.7267 H   0  0  0  0  0  0  0  0  0  0  0  0
   11.3642    5.9994   23.1268 H   0  0  0  0  0  0  0  0  0  0  0  0
  1  2  2  0
  2  3  1  0
  2 11  1  0
  3  4  1  0
  3 24  1  0
  4  5  2  0
  4 10  1  0
  5  6  1  0
  5  7  1  0
  6 25  1  1
  6 26  1  0
  6 27  1  0
  7  8  2  0
  7 28  1  0
  8  9  1  0
  8 29  1  0
  9 10  2  0
 10 30  1  0
 11 12  1  0
 11 31  1  1
 11 32  1  0
 12 13  2  0
 12 17  1  0
 13 14  1  0
 13 33  1  0
 14 15  1  0
 14 16  2  0
 16 18  1  0
 16 34  1  0
 17 18  2  0
 17 35  1  0
 18 19  1  0
 19 20  1  0
 19 36  1  1
 19 37  1  0
 20 21  1  0
 20 38  1  0
 21 22  2  0
 21 23  1  0
 23 39  1  6
 23 40  1  0
 23 41  1  0
M  END
$$$$
