LIG(A-305)
     RDKit          3D

 58 59  0  0  1  0  0  0  0  0999 V2000
    9.2931    1.5751   20.9484 O   0  0  0  0  0  0  0  0  0  0  0  0
    8.3462    1.3212   21.6856 C   0  0  0  0  0  0  0  0  0  0  0  0
    8.1115    1.9253   22.8616 N   0  0  0  0  0  0  0  0  0  0  0  0
    8.9337    2.9872   23.4914 C   0  0  1  0  0  0  0  0  0  0  0  0
   10.4136    2.8331   23.1641 C   0  0  1  0  0  0  0  0  0  0  0  0
    8.4308    4.3383   23.0024 C   0  0  1  0  0  0  0  0  0  0  0  0
    8.7340    2.8733   24.9954 C   0  0  1  0  0  0  0  0  0  0  0  0
    7.3230    0.2373   21.3098 C   0  0  2  0  0  0  0  0  0  0  0  0
    7.6989   -1.1507   21.6748 N   0  0  0  0  0  0  0  0  0  0  0  0
    8.8540   -1.4088   22.4826 C   0  0  0  0  0  0  0  0  0  0  0  0
   10.1970   -0.9890   22.2764 C   0  0  0  0  0  0  0  0  0  0  0  0
   10.8222   -1.3430   23.4063 C   0  0  0  0  0  0  0  0  0  0  0  0
   12.2573   -1.1161   23.8260 C   0  0  2  0  0  0  0  0  0  0  0  0
   12.7873   -2.3552   24.5550 C   0  0  1  0  0  0  0  0  0  0  0  0
   12.3266    0.0859   24.7699 C   0  0  1  0  0  0  0  0  0  0  0  0
   13.1241   -0.8513   22.5908 C   0  0  1  0  0  0  0  0  0  0  0  0
    9.9883   -1.9638   24.2644 O   0  0  0  0  0  0  0  0  0  0  0  0
    8.7002   -2.0217   23.6797 N   0  0  0  0  0  0  0  0  0  0  0  0
    6.8837   -2.2656   21.4510 C   0  0  0  0  0  0  0  0  0  0  0  0
    5.6747   -2.1225   21.4762 O   0  0  0  0  0  0  0  0  0  0  0  0
    7.5155   -3.6047   21.2010 C   0  0  1  0  0  0  0  0  0  0  0  0
    7.1412   -4.1347   19.8701 C   0  0  1  0  0  0  0  0  0  0  0  0
    6.7228    0.4573   19.9299 C   0  0  0  0  0  0  0  0  0  0  0  0
    5.5778    1.2255   19.7691 C   0  0  0  0  0  0  0  0  0  0  0  0
    5.0766    1.4685   18.5022 C   0  0  0  0  0  0  0  0  0  0  0  0
    5.7404    0.9243   17.4201 C   0  0  0  0  0  0  0  0  0  0  0  0
    6.8363    0.1632   17.5399 N   0  0  0  0  0  0  0  0  0  0  0  0
    7.3035   -0.0528   18.7768 C   0  0  0  0  0  0  0  0  0  0  0  0
    7.2993    1.6290   23.3643 H   0  0  0  0  0  0  0  0  0  0  0  0
   10.9831    3.6390   23.6502 H   0  0  0  0  0  0  0  0  0  0  0  0
   10.7706    1.8593   23.5309 H   0  0  0  0  0  0  0  0  0  0  0  0
   10.5559    2.8892   22.0748 H   0  0  0  0  0  0  0  0  0  0  0  0
    9.0293    5.1401   23.4594 H   0  0  0  0  0  0  0  0  0  0  0  0
    8.5240    4.3897   21.9076 H   0  0  0  0  0  0  0  0  0  0  0  0
    7.3753    4.4612   23.2867 H   0  0  0  0  0  0  0  0  0  0  0  0
    9.3288    3.6461   25.5044 H   0  0  0  0  0  0  0  0  0  0  0  0
    7.6695    3.0128   25.2354 H   0  0  0  0  0  0  0  0  0  0  0  0
    9.0589    1.8785   25.3340 H   0  0  0  0  0  0  0  0  0  0  0  0
    6.4800    0.4552   21.9821 H   0  0  0  0  0  0  0  0  0  0  0  0
   10.6154   -0.4986   21.4099 H   0  0  0  0  0  0  0  0  0  0  0  0
   13.8310   -2.1847   24.8577 H   0  0  0  0  0  0  0  0  0  0  0  0
   12.1732   -2.5460   25.4474 H   0  0  0  0  0  0  0  0  0  0  0  0
   12.7380   -3.2248   23.8831 H   0  0  0  0  0  0  0  0  0  0  0  0
   13.3699    0.2525   25.0763 H   0  0  0  0  0  0  0  0  0  0  0  0
   11.9492    0.9803   24.2526 H   0  0  0  0  0  0  0  0  0  0  0  0
   11.7103   -0.1107   25.6595 H   0  0  0  0  0  0  0  0  0  0  0  0
   14.1663   -0.6871   22.9020 H   0  0  0  0  0  0  0  0  0  0  0  0
   13.0754   -1.7186   21.9160 H   0  0  0  0  0  0  0  0  0  0  0  0
   12.7528    0.0420   22.0671 H   0  0  0  0  0  0  0  0  0  0  0  0
    8.6094   -3.4999   21.2505 H   0  0  0  0  0  0  0  0  0  0  0  0
    7.1793   -4.3100   21.9753 H   0  0  0  0  0  0  0  0  0  0  0  0
    7.6185   -5.1140   19.7173 H   0  0  0  0  0  0  0  0  0  0  0  0
    6.0484   -4.2469   19.8144 H   0  0  0  0  0  0  0  0  0  0  0  0
    7.4785   -3.4369   19.0896 H   0  0  0  0  0  0  0  0  0  0  0  0
    5.0771    1.6343   20.6343 H   0  0  0  0  0  0  0  0  0  0  0  0
    4.1893    2.0682   18.3632 H   0  0  0  0  0  0  0  0  0  0  0  0
    5.3575    1.1219   16.4297 H   0  0  0  0  0  0  0  0  0  0  0  0
    8.1883   -0.6627   18.8837 H   0  0  0  0  0  0  0  0  0  0  0  0
  1  2  2  0
  2  3  1  0
  2  8  1  0
  4  3  1  6
  3 29  1  0
  4  5  1  0
  4  6  1  0
  4  7  1  0
  5 30  1  1
  5 31  1  0
  5 32  1  0
  6 33  1  1
  6 34  1  0
  6 35  1  0
  7 36  1  1
  7 37  1  0
  7 38  1  0
  8  9  1  0
  8 23  1  0
  8 39  1  1
  9 10  1  0
  9 19  1  0
 10 11  1  0
 10 18  2  0
 11 12  2  0
 11 40  1  0
 13 12  1  6
 12 17  1  0
 13 14  1  0
 13 15  1  0
 13 16  1  0
 14 41  1  1
 14 42  1  0
 14 43  1  0
 15 44  1  1
 15 45  1  0
 15 46  1  0
 16 47  1  1
 16 48  1  0
 16 49  1  0
 17 18  1  0
 19 20  2  0
 19 21  1  0
 21 22  1  0
 21 50  1  6
 21 51  1  0
 22 52  1  6
 22 53  1  0
 22 54  1  0
 23 24  2  0
 23 28  1  0
 24 25  1  0
 24 55  1  0
 25 26  2  0
 25 56  1  0
 26 27  1  0
 26 57  1  0
 27 28  2  0
 28 58  1  0
M  END
$$$$
