LIG(A-305)
     RDKit          3D

 28 29  0  0  0  0  0  0  0  0999 V2000
    4.7117    8.1084   10.8323 N   0  0  0  0  0  0  0  0  0  0  0  0
    2.0828    9.9835    9.6794 C   0  0  1  0  0  0  0  0  0  0  0  0
    1.7408    9.2795   10.8324 O   0  0  0  0  0  0  0  0  0  0  0  0
    3.4447    9.4815    9.1683 C   0  0  2  0  0  0  0  0  0  0  0  0
    3.2626    8.1315    8.4503 C   0  0  1  0  0  0  0  0  0  0  0  0
    4.4207    9.3614   10.3213 C   0  0  0  0  0  0  0  0  0  0  0  0
    5.6187    8.0513   11.8452 C   0  0  0  0  0  0  0  0  0  0  0  0
    6.2528    9.1853   12.3832 C   0  0  0  0  0  0  0  0  0  0  0  0
    5.9329   10.4363   11.8682 C   0  0  0  0  0  0  0  0  0  0  0  0
    5.0148   10.5384   10.8383 C   0  0  0  0  0  0  0  0  0  0  0  0
    3.9797   10.4024    8.0653 C   0  0  1  0  0  0  0  0  0  0  0  0
    3.4796    9.8325    6.7363 C   0  0  1  0  0  0  0  0  0  0  0  0
    2.7866    8.5165    7.0513 C   0  0  1  0  0  0  0  0  0  0  0  0
    1.3166    9.8202    8.9072 H   0  0  0  0  0  0  0  0  0  0  0  0
    2.1486   11.0572    9.9093 H   0  0  0  0  0  0  0  0  0  0  0  0
    2.4768    9.2781   11.4330 H   0  0  0  0  0  0  0  0  0  0  0  0
    4.2150    7.5831    8.4019 H   0  0  0  0  0  0  0  0  0  0  0  0
    2.5100    7.5146    8.9631 H   0  0  0  0  0  0  0  0  0  0  0  0
    5.8646    7.0839   12.2577 H   0  0  0  0  0  0  0  0  0  0  0  0
    6.9742    9.0862   13.1808 H   0  0  0  0  0  0  0  0  0  0  0  0
    6.3986   11.3240   12.2701 H   0  0  0  0  0  0  0  0  0  0  0  0
    4.7542   11.5049   10.4330 H   0  0  0  0  0  0  0  0  0  0  0  0
    3.5987   11.4245    8.2068 H   0  0  0  0  0  0  0  0  0  0  0  0
    5.0795   10.4154    8.0825 H   0  0  0  0  0  0  0  0  0  0  0  0
    2.7701   10.5309    6.2685 H   0  0  0  0  0  0  0  0  0  0  0  0
    4.3268    9.6602    6.0562 H   0  0  0  0  0  0  0  0  0  0  0  0
    3.0744    7.7457    6.3213 H   0  0  0  0  0  0  0  0  0  0  0  0
    1.6941    8.6443    7.0383 H   0  0  0  0  0  0  0  0  0  0  0  0
  1  6  2  0
  1  7  1  0
  2  3  1  0
  2  4  1  0
  2 14  1  6
  2 15  1  0
  3 16  1  0
  4  5  1  0
  4  6  1  1
  4 11  1  0
  5 13  1  0
  5 17  1  6
  5 18  1  0
  6 10  1  0
  7  8  2  0
  7 19  1  0
  8  9  1  0
  8 20  1  0
  9 10  2  0
  9 21  1  0
 10 22  1  0
 11 12  1  0
 11 23  1  1
 11 24  1  0
 12 13  1  0
 12 25  1  6
 12 26  1  0
 13 27  1  6
 13 28  1  0
M  END
$$$$
