LIG(A-306)
     RDKit          3D

 59 63  0  0  1  0  0  0  0  0999 V2000
    6.1030    7.5575   23.2145 O   0  0  0  0  0  0  0  0  0  0  0  0
    7.2618    6.7248   23.0294 S   0  0  2  0  0  0  0  0  0  0  0  0
    8.4968    7.3437   22.6230 O   0  0  0  0  0  0  0  0  0  0  0  0
    6.8685    5.2295   22.1319 C   0  0  1  0  0  0  0  0  0  0  0  0
    7.4944    5.4609   24.2710 C   0  0  1  0  0  0  0  0  0  0  0  0
    6.7336    4.4057   23.4377 C   0  0  1  0  0  0  0  0  0  0  0  0
    5.2669    4.2703   23.8529 C   0  0  1  0  0  0  0  0  0  0  0  0
    7.4228    3.0421   23.3103 C   0  0  1  0  0  0  0  0  0  0  0  0
    7.6092    2.0666   24.7955 S   0  0  1  0  0  0  0  0  0  0  0  0
    8.1121    2.9093   25.8330 O   0  0  0  0  0  0  0  0  0  0  0  0
    6.4010    1.3351   25.0188 O   0  0  0  0  0  0  0  0  0  0  0  0
    8.7657    0.9817   24.4594 N   0  0  0  0  0  0  0  0  0  0  0  0
   10.1500    1.2814   24.8446 C   0  0  1  0  0  0  0  0  0  0  0  0
   11.1102    0.5551   23.9315 C   0  0  0  0  0  0  0  0  0  0  0  0
   12.4507    0.9364   23.9322 C   0  0  0  0  0  0  0  0  0  0  0  0
   13.3736    0.3081   23.1183 C   0  0  0  0  0  0  0  0  0  0  0  0
   12.9613   -0.7388   22.3268 C   0  0  0  0  0  0  0  0  0  0  0  0
   14.1287   -1.5564   21.3211 Cl  0  0  0  0  0  0  0  0  0  0  0  0
   11.6414   -1.1519   22.3011 C   0  0  0  0  0  0  0  0  0  0  0  0
   10.6953   -0.4873   23.0848 C   0  0  0  0  0  0  0  0  0  0  0  0
    9.2205   -0.8393   22.9699 C   0  0  1  0  0  0  0  0  0  0  0  0
    8.4746   -0.4481   24.2456 C   0  0  2  0  0  0  0  0  0  0  0  0
    8.6376   -0.0652   21.7823 C   0  0  0  0  0  0  0  0  0  0  0  0
    9.1779    0.9487   21.3327 O   0  0  0  0  0  0  0  0  0  0  0  0
    7.4843   -0.5829   21.2779 N   0  0  0  0  0  0  0  0  0  0  0  0
    6.7402   -0.1185   20.1610 C   0  0  0  0  0  0  0  0  0  0  0  0
    5.5517    0.6528   20.3832 C   0  0  0  0  0  0  0  0  0  0  0  0
    4.9786    0.8715   21.6641 C   0  0  0  0  0  0  0  0  0  0  0  0
    3.8533    1.6346   21.8102 C   0  0  0  0  0  0  0  0  0  0  0  0
    3.2525    2.2299   20.7087 C   0  0  0  0  0  0  0  0  0  0  0  0
    3.7636    2.0482   19.4544 C   0  0  0  0  0  0  0  0  0  0  0  0
    4.9114    1.2416   19.2535 C   0  0  0  0  0  0  0  0  0  0  0  0
    5.4602    0.9819   17.9744 C   0  0  0  0  0  0  0  0  0  0  0  0
    6.5372    0.2400   17.7632 N   0  0  0  0  0  0  0  0  0  0  0  0
    7.1511   -0.2823   18.8360 C   0  0  0  0  0  0  0  0  0  0  0  0
    5.9341    5.2956   21.5551 H   0  0  0  0  0  0  0  0  0  0  0  0
    7.6808    4.8837   21.4756 H   0  0  0  0  0  0  0  0  0  0  0  0
    8.5501    5.2052   24.4448 H   0  0  0  0  0  0  0  0  0  0  0  0
    7.0108    5.6944   25.2310 H   0  0  0  0  0  0  0  0  0  0  0  0
    4.7774    3.5084   23.2285 H   0  0  0  0  0  0  0  0  0  0  0  0
    5.2113    3.9693   24.9094 H   0  0  0  0  0  0  0  0  0  0  0  0
    4.7576    5.2361   23.7194 H   0  0  0  0  0  0  0  0  0  0  0  0
    6.8391    2.4441   22.5950 H   0  0  0  0  0  0  0  0  0  0  0  0
    8.4298    3.2191   22.9044 H   0  0  0  0  0  0  0  0  0  0  0  0
   10.3231    2.3649   24.7673 H   0  0  0  0  0  0  0  0  0  0  0  0
   10.3177    0.9564   25.8820 H   0  0  0  0  0  0  0  0  0  0  0  0
   12.7739    1.7374   24.5805 H   0  0  0  0  0  0  0  0  0  0  0  0
   14.4032    0.6340   23.1037 H   0  0  0  0  0  0  0  0  0  0  0  0
   11.3443   -1.9832   21.6790 H   0  0  0  0  0  0  0  0  0  0  0  0
    9.1098   -1.9196   22.7946 H   0  0  0  0  0  0  0  0  0  0  0  0
    7.3931   -0.6042   24.1201 H   0  0  0  0  0  0  0  0  0  0  0  0
    8.8346   -1.0437   25.0975 H   0  0  0  0  0  0  0  0  0  0  0  0
    7.1176   -1.3850   21.7493 H   0  0  0  0  0  0  0  0  0  0  0  0
    5.4382    0.4286   22.5354 H   0  0  0  0  0  0  0  0  0  0  0  0
    3.4274    1.7759   22.7925 H   0  0  0  0  0  0  0  0  0  0  0  0
    2.3732    2.8420   20.8446 H   0  0  0  0  0  0  0  0  0  0  0  0
    3.2887    2.5234   18.6088 H   0  0  0  0  0  0  0  0  0  0  0  0
    4.9694    1.4163   17.1161 H   0  0  0  0  0  0  0  0  0  0  0  0
    8.0349   -0.8778   18.6608 H   0  0  0  0  0  0  0  0  0  0  0  0
  1  2  2  0
  2  3  2  0
  2  4  1  6
  2  5  1  0
  4  6  1  0
  4 36  1  6
  4 37  1  0
  5  6  1  0
  5 38  1  1
  5 39  1  0
  6  7  1  0
  6  8  1  6
  7 40  1  6
  7 41  1  0
  7 42  1  0
  8  9  1  0
  8 43  1  6
  8 44  1  0
  9 10  2  0
  9 11  2  0
  9 12  1  6
 12 13  1  0
 12 22  1  0
 13 14  1  0
 13 45  1  1
 13 46  1  0
 14 15  2  0
 14 20  1  0
 15 16  1  0
 15 47  1  0
 16 17  2  0
 16 48  1  0
 17 18  1  0
 17 19  1  0
 19 20  2  0
 19 49  1  0
 20 21  1  0
 21 22  1  0
 21 23  1  0
 21 50  1  6
 22 51  1  6
 22 52  1  0
 23 24  2  0
 23 25  1  0
 25 26  1  0
 25 53  1  0
 26 27  2  0
 26 35  1  0
 27 28  1  0
 27 32  1  0
 28 29  2  0
 28 54  1  0
 29 30  1  0
 29 55  1  0
 30 31  2  0
 30 56  1  0
 31 32  1  0
 31 57  1  0
 32 33  2  0
 33 34  1  0
 33 58  1  0
 34 35  2  0
 35 59  1  0
M  END
$$$$
