LIG(A-306)
     RDKit          3D

 46 49  0  0  1  0  0  0  0  0999 V2000
    9.5283    1.1762   21.3143 O   0  0  0  0  0  0  0  0  0  0  0  0
    9.0955    0.1372   21.7915 C   0  0  0  0  0  0  0  0  0  0  0  0
    9.8386   -0.5735   22.9596 C   0  0  1  0  0  0  0  0  0  0  0  0
   11.3576   -0.2873   22.9685 C   0  0  0  0  0  0  0  0  0  0  0  0
   12.1986   -1.0534   22.1626 C   0  0  0  0  0  0  0  0  0  0  0  0
   13.5096   -0.6542   21.9605 C   0  0  0  0  0  0  0  0  0  0  0  0
   14.4287   -1.4153   20.6966 Cl  0  0  0  0  0  0  0  0  0  0  0  0
   14.0505    0.4320   22.6143 C   0  0  0  0  0  0  0  0  0  0  0  0
   13.2574    1.1610   23.4782 C   0  0  0  0  0  0  0  0  0  0  0  0
   11.9274    0.8059   23.6453 C   0  0  0  0  0  0  0  0  0  0  0  0
   10.9833    1.7320   24.7972 S   0  0  2  0  0  0  0  0  0  0  0  0
   11.2932    3.1240   24.6559 O   0  0  0  0  0  0  0  0  0  0  0  0
   11.1045    1.1272   26.0913 O   0  0  0  0  0  0  0  0  0  0  0  0
    9.4604    1.4937   24.2682 N   0  0  0  0  0  0  0  0  0  0  0  0
    9.0955    0.0736   24.1475 C   0  0  2  0  0  0  0  0  0  0  0  0
    9.6088   -2.1036   22.9049 C   0  0  1  0  0  0  0  0  0  0  0  0
    9.9579   -2.8663   24.1730 C   0  0  1  0  0  0  0  0  0  0  0  0
    7.9646   -0.4600   21.3306 N   0  0  0  0  0  0  0  0  0  0  0  0
    7.1525   -0.1043   20.2286 C   0  0  0  0  0  0  0  0  0  0  0  0
    5.9754    0.6715   20.4595 C   0  0  0  0  0  0  0  0  0  0  0  0
    5.4764    0.9827   21.7504 C   0  0  0  0  0  0  0  0  0  0  0  0
    4.3283    1.7066   21.9033 C   0  0  0  0  0  0  0  0  0  0  0  0
    3.6342    2.1743   20.7993 C   0  0  0  0  0  0  0  0  0  0  0  0
    4.0742    1.9051   19.5363 C   0  0  0  0  0  0  0  0  0  0  0  0
    5.2393    1.1292   19.3294 C   0  0  0  0  0  0  0  0  0  0  0  0
    5.6913    0.7421   18.0475 C   0  0  0  0  0  0  0  0  0  0  0  0
    6.7514   -0.0188   17.8336 N   0  0  0  0  0  0  0  0  0  0  0  0
    7.4545   -0.4165   18.9026 C   0  0  0  0  0  0  0  0  0  0  0  0
   11.8292   -1.9553   21.6973 H   0  0  0  0  0  0  0  0  0  0  0  0
   15.0817    0.7094   22.4530 H   0  0  0  0  0  0  0  0  0  0  0  0
   13.6693    2.0003   24.0189 H   0  0  0  0  0  0  0  0  0  0  0  0
    9.0822    2.1389   23.6044 H   0  0  0  0  0  0  0  0  0  0  0  0
    9.3686   -0.4509   25.0750 H   0  0  0  0  0  0  0  0  0  0  0  0
    8.0108   -0.0094   23.9851 H   0  0  0  0  0  0  0  0  0  0  0  0
    8.5449   -2.2783   22.6869 H   0  0  0  0  0  0  0  0  0  0  0  0
   10.2221   -2.5088   22.0865 H   0  0  0  0  0  0  0  0  0  0  0  0
    9.7575   -3.9375   24.0241 H   0  0  0  0  0  0  0  0  0  0  0  0
   11.0231   -2.7217   24.4062 H   0  0  0  0  0  0  0  0  0  0  0  0
    9.3459   -2.4912   25.0066 H   0  0  0  0  0  0  0  0  0  0  0  0
    7.6644   -1.2645   21.8432 H   0  0  0  0  0  0  0  0  0  0  0  0
    6.0117    0.6424   22.6245 H   0  0  0  0  0  0  0  0  0  0  0  0
    3.9575    1.9167   22.8957 H   0  0  0  0  0  0  0  0  0  0  0  0
    2.7362    2.7576   20.9398 H   0  0  0  0  0  0  0  0  0  0  0  0
    3.5283    2.2877   18.6866 H   0  0  0  0  0  0  0  0  0  0  0  0
    5.1361    1.0895   17.1887 H   0  0  0  0  0  0  0  0  0  0  0  0
    8.3260   -1.0287   18.7233 H   0  0  0  0  0  0  0  0  0  0  0  0
  1  2  2  0
  3  2  1  6
  2 18  1  0
  3  4  1  0
  3 15  1  0
  3 16  1  0
  4  5  2  0
  4 10  1  0
  5  6  1  0
  5 29  1  0
  6  7  1  0
  6  8  2  0
  8  9  1  0
  8 30  1  0
  9 10  2  0
  9 31  1  0
 10 11  1  0
 11 12  2  0
 11 13  2  0
 11 14  1  6
 14 15  1  0
 14 32  1  0
 15 33  1  1
 15 34  1  0
 16 17  1  0
 16 35  1  6
 16 36  1  0
 17 37  1  6
 17 38  1  0
 17 39  1  0
 18 19  1  0
 18 40  1  0
 19 20  2  0
 19 28  1  0
 20 21  1  0
 20 25  1  0
 21 22  2  0
 21 41  1  0
 22 23  1  0
 22 42  1  0
 23 24  2  0
 23 43  1  0
 24 25  1  0
 24 44  1  0
 25 26  2  0
 26 27  1  0
 26 45  1  0
 27 28  2  0
 28 46  1  0
M  END
$$$$
