LIG(A-306)
     RDKit          3D

 50 52  0  0  0  0  0  0  0  0999 V2000
   14.0423   -1.2982   21.5544 Cl  0  0  0  0  0  0  0  0  0  0  0  0
   12.7079   -0.7670   22.5426 C   0  0  0  0  0  0  0  0  0  0  0  0
   12.9386    0.1401   23.5574 C   0  0  0  0  0  0  0  0  0  0  0  0
   11.8685    0.5457   24.3377 C   0  0  0  0  0  0  0  0  0  0  0  0
   10.5913    0.0768   24.0708 C   0  0  0  0  0  0  0  0  0  0  0  0
   11.4436   -1.2552   22.2762 C   0  0  0  0  0  0  0  0  0  0  0  0
   10.3617   -0.8088   23.0266 C   0  0  0  0  0  0  0  0  0  0  0  0
    8.9547   -1.2024   22.6398 C   0  0  1  0  0  0  0  0  0  0  0  0
    8.3322   -0.2201   21.6672 C   0  0  0  0  0  0  0  0  0  0  0  0
    8.8252    0.8862   21.4571 O   0  0  0  0  0  0  0  0  0  0  0  0
    7.2228   -0.6782   21.0456 N   0  0  0  0  0  0  0  0  0  0  0  0
    6.5302   -0.1042   19.9627 C   0  0  0  0  0  0  0  0  0  0  0  0
    6.9233   -0.2453   18.6301 C   0  0  0  0  0  0  0  0  0  0  0  0
    6.3183    0.3328   17.5839 N   0  0  0  0  0  0  0  0  0  0  0  0
    5.2709    1.1039   17.8328 C   0  0  0  0  0  0  0  0  0  0  0  0
    5.3892    0.7138   20.2326 C   0  0  0  0  0  0  0  0  0  0  0  0
    4.7481    1.3439   19.1281 C   0  0  0  0  0  0  0  0  0  0  0  0
    3.6296    2.1754   19.3690 C   0  0  0  0  0  0  0  0  0  0  0  0
    3.1624    2.3695   20.6327 C   0  0  0  0  0  0  0  0  0  0  0  0
    4.8693    0.9321   21.5344 C   0  0  0  0  0  0  0  0  0  0  0  0
    3.7764    1.7465   21.7119 C   0  0  0  0  0  0  0  0  0  0  0  0
    3.1752    2.0697   22.9066 O   0  0  0  0  0  0  0  0  0  0  0  0
    3.3789    1.2085   24.0437 C   0  0  1  0  0  0  0  0  0  0  0  0
    2.3867    1.6042   25.1221 C   0  0  1  0  0  0  0  0  0  0  0  0
    2.7354    2.8006   25.9070 N   0  0  2  0  0  0  0  0  0  0  0  0
    3.2319    2.4252   27.2270 C   0  0  1  0  0  0  0  0  0  0  0  0
    1.5893    3.7036   26.0441 C   0  0  1  0  0  0  0  0  0  0  0  0
   13.9313    0.5248   23.7388 H   0  0  0  0  0  0  0  0  0  0  0  0
   12.0296    1.2301   25.1575 H   0  0  0  0  0  0  0  0  0  0  0  0
    9.7644    0.4047   24.6832 H   0  0  0  0  0  0  0  0  0  0  0  0
   11.2963   -1.9800   21.4892 H   0  0  0  0  0  0  0  0  0  0  0  0
    8.9814   -2.1969   22.1705 H   0  0  0  0  0  0  0  0  0  0  0  0
    8.3356   -1.2421   23.5482 H   0  0  0  0  0  0  0  0  0  0  0  0
    6.8460   -1.5339   21.4002 H   0  0  0  0  0  0  0  0  0  0  0  0
    7.7815   -0.8687   18.4272 H   0  0  0  0  0  0  0  0  0  0  0  0
    4.7837    1.5804   16.9950 H   0  0  0  0  0  0  0  0  0  0  0  0
    3.1396    2.6630   18.5391 H   0  0  0  0  0  0  0  0  0  0  0  0
    2.3096    3.0114   20.7972 H   0  0  0  0  0  0  0  0  0  0  0  0
    5.3329    0.4580   22.3868 H   0  0  0  0  0  0  0  0  0  0  0  0
    3.2133    0.1609   23.7518 H   0  0  0  0  0  0  0  0  0  0  0  0
    4.4054    1.3262   24.4209 H   0  0  0  0  0  0  0  0  0  0  0  0
    1.4172    1.7899   24.6367 H   0  0  0  0  0  0  0  0  0  0  0  0
    2.2916    0.7590   25.8196 H   0  0  0  0  0  0  0  0  0  0  0  0
    3.4627    3.2887   25.4245 H   0  0  0  0  0  0  0  0  0  0  0  0
    3.4859    3.3322   27.7953 H   0  0  0  0  0  0  0  0  0  0  0  0
    2.4549    1.8616   27.7642 H   0  0  0  0  0  0  0  0  0  0  0  0
    4.1292    1.7986   27.1165 H   0  0  0  0  0  0  0  0  0  0  0  0
    1.8841    4.5839   26.6341 H   0  0  0  0  0  0  0  0  0  0  0  0
    1.2551    4.0257   25.0469 H   0  0  0  0  0  0  0  0  0  0  0  0
    0.7681    3.1788   26.5543 H   0  0  0  0  0  0  0  0  0  0  0  0
  1  2  1  0
  2  3  2  0
  2  6  1  0
  3  4  1  0
  3 28  1  0
  4  5  2  0
  4 29  1  0
  5  7  1  0
  5 30  1  0
  6  7  2  0
  6 31  1  0
  7  8  1  0
  8  9  1  0
  8 32  1  6
  8 33  1  0
  9 10  2  0
  9 11  1  0
 11 12  1  0
 11 34  1  0
 12 13  2  0
 12 16  1  0
 13 14  1  0
 13 35  1  0
 14 15  2  0
 15 17  1  0
 15 36  1  0
 16 17  2  0
 16 20  1  0
 17 18  1  0
 18 19  2  0
 18 37  1  0
 19 21  1  0
 19 38  1  0
 20 21  2  0
 20 39  1  0
 21 22  1  0
 22 23  1  0
 23 24  1  0
 23 40  1  6
 23 41  1  0
 24 25  1  0
 24 42  1  6
 24 43  1  0
 25 26  1  0
 25 27  1  0
 25 44  1  6
 26 45  1  1
 26 46  1  0
 26 47  1  0
 27 48  1  1
 27 49  1  0
 27 50  1  0
M  CHG  1  25   1
M  END
$$$$
