LIG(A-305)
     RDKit          3D

 30 32  0  0  1  0  0  0  0  0999 V2000
    2.2752  -24.9009    0.8219 C   0  0  0  0  0  0  0  0  0  0  0  0
    2.0514  -23.5359    0.6929 C   0  0  0  0  0  0  0  0  0  0  0  0
    4.1584  -23.2881   -0.2061 C   0  0  0  0  0  0  0  0  0  0  0  0
    6.4474  -22.8293   -1.1742 C   0  0  1  0  0  0  0  0  0  0  0  0
    7.3075  -21.5264   -1.3852 C   0  0  1  0  0  0  0  0  0  0  0  0
    6.2156  -20.4223   -1.6401 C   0  0  1  0  0  0  0  0  0  0  0  0
    6.7538  -19.0134   -1.3691 C   0  0  1  0  0  0  0  0  0  0  0  0
    7.4478  -18.7244   -2.5082 C   0  0  1  0  0  0  0  0  0  0  0  0
    5.7986  -20.3452   -3.1921 C   0  0  1  0  0  0  0  0  0  0  0  0
    5.1896  -20.7662   -0.8321 C   0  0  1  0  0  0  0  0  0  0  0  0
    4.3862  -24.6661   -0.0812 C   0  0  0  0  0  0  0  0  0  0  0  0
    3.0074  -22.7480    0.1779 N   0  0  0  0  0  0  0  0  0  0  0  0
    5.2285  -22.4162   -0.7801 N   0  0  0  0  0  0  0  0  0  0  0  0
    3.4382  -25.4390    0.4379 N   0  0  0  0  0  0  0  0  0  0  0  0
    6.6917  -19.5363   -3.7321 O   0  0  0  0  0  0  0  0  0  0  0  0
    1.5037  -25.5332    1.2358 H   0  0  0  0  0  0  0  0  0  0  0  0
    1.1098  -23.1099    1.0066 H   0  0  0  0  0  0  0  0  0  0  0  0
    6.3727  -23.3933   -2.1156 H   0  0  0  0  0  0  0  0  0  0  0  0
    6.9027  -23.4654   -0.4008 H   0  0  0  0  0  0  0  0  0  0  0  0
    7.9024  -21.2954   -0.4892 H   0  0  0  0  0  0  0  0  0  0  0  0
    7.9761  -21.6297   -2.2526 H   0  0  0  0  0  0  0  0  0  0  0  0
    5.9315  -18.2991   -1.2155 H   0  0  0  0  0  0  0  0  0  0  0  0
    7.4155  -19.0054   -0.4905 H   0  0  0  0  0  0  0  0  0  0  0  0
    7.4289  -17.6416   -2.7010 H   0  0  0  0  0  0  0  0  0  0  0  0
    8.4905  -19.0621   -2.4146 H   0  0  0  0  0  0  0  0  0  0  0  0
    5.8438  -21.3410   -3.6572 H   0  0  0  0  0  0  0  0  0  0  0  0
    4.7841  -19.9345   -3.3027 H   0  0  0  0  0  0  0  0  0  0  0  0
    5.3299  -20.3434    0.1737 H   0  0  0  0  0  0  0  0  0  0  0  0
    4.2341  -20.4140   -1.2479 H   0  0  0  0  0  0  0  0  0  0  0  0
    5.3234  -25.0951   -0.4037 H   0  0  0  0  0  0  0  0  0  0  0  0
  1  2  2  0
  1 14  1  0
  1 16  1  0
  2 12  1  0
  2 17  1  0
  3 11  1  0
  3 12  2  0
  3 13  1  0
  4  5  1  0
  4 13  1  0
  4 18  1  6
  4 19  1  0
  5  6  1  0
  5 20  1  1
  5 21  1  0
  6  7  1  0
  6  9  1  6
  6 10  1  0
  7  8  1  0
  7 22  1  1
  7 23  1  0
  8 15  1  0
  8 24  1  6
  8 25  1  0
  9 15  1  0
  9 26  1  6
  9 27  1  0
 10 13  1  0
 10 28  1  1
 10 29  1  0
 11 14  2  0
 11 30  1  0
M  END
$$$$
