LIG(A-305)
     RDKit          3D

 35 37  0  0  0  0  0  0  0  0999 V2000
    6.5004    0.5966   17.4452 N   0  0  0  0  0  0  0  0  0  0  0  0
    9.8925   -0.7154   23.3031 N   0  0  0  0  0  0  0  0  0  0  0  0
    5.5045    0.7547   20.0682 C   0  0  0  0  0  0  0  0  0  0  0  0
   13.1846    0.5034   23.8960 C   0  0  0  0  0  0  0  0  0  0  0  0
    9.6346    0.0296   24.4301 C   0  0  0  0  0  0  0  0  0  0  0  0
    4.9125    1.4538   19.0212 C   0  0  0  0  0  0  0  0  0  0  0  0
    8.4345   -0.4234   21.3621 C   0  0  0  0  0  0  0  0  0  0  0  0
    6.6195   -0.0483   19.7602 C   0  0  0  0  0  0  0  0  0  0  0  0
    7.0734   -0.0884   18.4402 C   0  0  0  0  0  0  0  0  0  0  0  0
   11.8276    0.1935   24.0090 C   0  0  0  0  0  0  0  0  0  0  0  0
   13.3325   -0.8696   21.9670 C   0  0  0  0  0  0  0  0  0  0  0  0
   14.1004   -1.4527   21.0080 F   0  0  0  0  0  0  0  0  0  0  0  0
   10.7717    0.5956   24.8910 C   0  0  0  0  0  0  0  0  0  0  0  0
   13.9406   -0.0137   22.8579 C   0  0  0  0  0  0  0  0  0  0  0  0
   11.9985   -1.2046   22.0130 C   0  0  0  0  0  0  0  0  0  0  0  0
    4.9916    0.9028   21.4782 C   0  0  1  0  0  0  0  0  0  0  0  0
    7.2675   -0.7723   20.7852 N   0  0  0  0  0  0  0  0  0  0  0  0
    9.0775    0.5826   21.0621 O   0  0  0  0  0  0  0  0  0  0  0  0
    8.8855   -1.3614   22.4681 C   0  0  2  0  0  0  0  0  0  0  0  0
    5.4375    1.3507   17.7482 C   0  0  0  0  0  0  0  0  0  0  0  0
   11.2485   -0.6435   23.0390 C   0  0  0  0  0  0  0  0  0  0  0  0
   13.6482    1.1520   24.6245 H   0  0  0  0  0  0  0  0  0  0  0  0
    8.6609    0.1459   24.8826 H   0  0  0  0  0  0  0  0  0  0  0  0
    4.0471    2.0737   19.2030 H   0  0  0  0  0  0  0  0  0  0  0  0
    7.9309   -0.7039   18.2114 H   0  0  0  0  0  0  0  0  0  0  0  0
   10.8668    1.2306   25.7594 H   0  0  0  0  0  0  0  0  0  0  0  0
   14.9827    0.2481   22.7494 H   0  0  0  0  0  0  0  0  0  0  0  0
   11.5563   -1.8709   21.2872 H   0  0  0  0  0  0  0  0  0  0  0  0
    4.1448    1.6048   21.4890 H   0  0  0  0  0  0  0  0  0  0  0  0
    4.6603   -0.0771   21.8525 H   0  0  0  0  0  0  0  0  0  0  0  0
    5.7956    1.2885   22.1222 H   0  0  0  0  0  0  0  0  0  0  0  0
    6.8258   -1.6094   21.1081 H   0  0  0  0  0  0  0  0  0  0  0  0
    8.0191   -1.6324   23.0894 H   0  0  0  0  0  0  0  0  0  0  0  0
    9.3143   -2.2700   22.0204 H   0  0  0  0  0  0  0  0  0  0  0  0
    4.9644    1.9091   16.9540 H   0  0  0  0  0  0  0  0  0  0  0  0
  1  9  1  0
  1 20  2  0
  2  5  1  0
  2 19  1  0
  2 21  1  0
  3  6  2  0
  3  8  1  0
  3 16  1  0
  4 10  2  0
  4 14  1  0
  4 22  1  0
  5 13  2  0
  5 23  1  0
  6 20  1  0
  6 24  1  0
  7 17  1  0
  7 18  2  0
  7 19  1  0
  8  9  2  0
  8 17  1  0
  9 25  1  0
 10 13  1  0
 10 21  1  0
 11 12  1  0
 11 14  2  0
 11 15  1  0
 13 26  1  0
 14 27  1  0
 15 21  2  0
 15 28  1  0
 16 29  1  6
 16 30  1  0
 16 31  1  0
 17 32  1  0
 19 33  1  1
 19 34  1  0
 20 35  1  0
M  END
$$$$
