LIG(A-306)
     RDKit          3D

 33 35  0  0  0  0  0  0  0  0999 V2000
   -9.6217    0.4817  -20.9625 O   0  0  0  0  0  0  0  0  0  0  0  0
   -9.0826   -0.5836  -21.2698 C   0  0  0  0  0  0  0  0  0  0  0  0
   -9.6811   -1.5296  -22.2933 C   0  0  1  0  0  0  0  0  0  0  0  0
  -11.1368   -1.2392  -22.5746 C   0  0  0  0  0  0  0  0  0  0  0  0
  -11.5143   -0.2183  -23.4326 C   0  0  0  0  0  0  0  0  0  0  0  0
  -12.7847    0.1465  -23.6569 N   0  0  0  0  0  0  0  0  0  0  0  0
  -13.7506   -0.5233  -23.0130 C   0  0  0  0  0  0  0  0  0  0  0  0
  -12.1487   -1.9339  -21.9237 C   0  0  0  0  0  0  0  0  0  0  0  0
  -13.4590   -1.5610  -22.1329 C   0  0  0  0  0  0  0  0  0  0  0  0
  -14.7208   -2.3331  -21.2110 Cl  0  0  0  0  0  0  0  0  0  0  0  0
   -7.9220   -1.0122  -20.7386 N   0  0  0  0  0  0  0  0  0  0  0  0
   -7.1413   -0.3884  -19.7504 C   0  0  0  0  0  0  0  0  0  0  0  0
   -6.0588    0.4543  -20.1538 C   0  0  0  0  0  0  0  0  0  0  0  0
   -5.6450    0.6199  -21.5038 C   0  0  0  0  0  0  0  0  0  0  0  0
   -4.6054    1.4475  -21.8242 C   0  0  0  0  0  0  0  0  0  0  0  0
   -3.9315    2.1535  -20.8306 C   0  0  0  0  0  0  0  0  0  0  0  0
   -4.2942    2.0289  -19.5196 C   0  0  0  0  0  0  0  0  0  0  0  0
   -5.3608    1.1732  -19.1452 C   0  0  0  0  0  0  0  0  0  0  0  0
   -5.7736    0.9876  -17.8034 C   0  0  0  0  0  0  0  0  0  0  0  0
   -6.7691    0.1938  -17.4289 N   0  0  0  0  0  0  0  0  0  0  0  0
   -7.4269   -0.4684  -18.3873 C   0  0  0  0  0  0  0  0  0  0  0  0
   -9.1157   -1.4358  -23.2322 H   0  0  0  0  0  0  0  0  0  0  0  0
   -9.5945   -2.5586  -21.9144 H   0  0  0  0  0  0  0  0  0  0  0  0
  -10.7351    0.3177  -23.9542 H   0  0  0  0  0  0  0  0  0  0  0  0
  -14.7819   -0.2506  -23.1816 H   0  0  0  0  0  0  0  0  0  0  0  0
  -11.9119   -2.7548  -21.2631 H   0  0  0  0  0  0  0  0  0  0  0  0
   -7.5727   -1.8807  -21.0903 H   0  0  0  0  0  0  0  0  0  0  0  0
   -6.1596    0.0840  -22.2876 H   0  0  0  0  0  0  0  0  0  0  0  0
   -4.3041    1.5548  -22.8558 H   0  0  0  0  0  0  0  0  0  0  0  0
   -3.1139    2.8060  -21.0993 H   0  0  0  0  0  0  0  0  0  0  0  0
   -3.7640    2.5868  -18.7619 H   0  0  0  0  0  0  0  0  0  0  0  0
   -5.2431    1.5281  -17.0334 H   0  0  0  0  0  0  0  0  0  0  0  0
   -8.2389   -1.1124  -18.0834 H   0  0  0  0  0  0  0  0  0  0  0  0
  1  2  2  0
  2  3  1  0
  2 11  1  0
  3  4  1  0
  3 22  1  6
  3 23  1  0
  4  5  2  0
  4  8  1  0
  5  6  1  0
  5 24  1  0
  6  7  2  0
  7  9  1  0
  7 25  1  0
  8  9  2  0
  8 26  1  0
  9 10  1  0
 11 12  1  0
 11 27  1  0
 12 13  2  0
 12 21  1  0
 13 14  1  0
 13 18  1  0
 14 15  2  0
 14 28  1  0
 15 16  1  0
 15 29  1  0
 16 17  2  0
 16 30  1  0
 17 18  1  0
 17 31  1  0
 18 19  2  0
 19 20  1  0
 19 32  1  0
 20 21  2  0
 21 33  1  0
M  END
$$$$
