LIG(A-305)
     RDKit          3D

 56 57  0  0  1  0  0  0  0  0999 V2000
    5.6457   -2.2947   21.0118 O   0  0  0  0  0  0  0  0  0  0  0  0
    6.7718   -2.4467   21.4557 C   0  0  0  0  0  0  0  0  0  0  0  0
    7.3347   -3.8348   21.6167 C   0  0  1  0  0  0  0  0  0  0  0  0
    7.2195   -4.6068   20.3388 C   0  0  1  0  0  0  0  0  0  0  0  0
    7.5639   -1.3808   21.7826 N   0  0  0  0  0  0  0  0  0  0  0  0
    8.7880   -1.5478   22.5184 C   0  0  0  0  0  0  0  0  0  0  0  0
   10.0089   -1.6469   21.8523 C   0  0  0  0  0  0  0  0  0  0  0  0
   11.1860   -1.7780   22.5702 C   0  0  0  0  0  0  0  0  0  0  0  0
   11.1811   -1.8159   23.9632 C   0  0  0  0  0  0  0  0  0  0  0  0
   12.4852   -1.8749   24.7720 C   0  0  2  0  0  0  0  0  0  0  0  0
   13.7131   -2.1171   23.8889 C   0  0  1  0  0  0  0  0  0  0  0  0
   12.4333   -3.0029   25.8151 C   0  0  1  0  0  0  0  0  0  0  0  0
   12.6924   -0.5469   25.5049 C   0  0  1  0  0  0  0  0  0  0  0  0
    9.9542   -1.7398   24.6183 C   0  0  0  0  0  0  0  0  0  0  0  0
    8.7711   -1.6047   23.9104 C   0  0  0  0  0  0  0  0  0  0  0  0
    7.1560    0.0212   21.4775 C   0  0  1  0  0  0  0  0  0  0  0  0
    8.2301    1.0732   21.7993 C   0  0  0  0  0  0  0  0  0  0  0  0
    9.1380    1.3071   21.0082 O   0  0  0  0  0  0  0  0  0  0  0  0
    8.0702    1.7063   22.9633 N   0  0  0  0  0  0  0  0  0  0  0  0
    9.0794    2.6032   23.5152 C   0  0  1  0  0  0  0  0  0  0  0  0
   10.3114    1.8522   23.9501 C   0  0  1  0  0  0  0  0  0  0  0  0
    6.5108    0.2752   20.1236 C   0  0  0  0  0  0  0  0  0  0  0  0
    5.3618    1.0453   20.0137 C   0  0  0  0  0  0  0  0  0  0  0  0
    6.6495    0.1791   17.7186 N   0  0  0  0  0  0  0  0  0  0  0  0
    4.8677    1.3822   18.7677 C   0  0  0  0  0  0  0  0  0  0  0  0
    5.5426    0.9271   17.6537 C   0  0  0  0  0  0  0  0  0  0  0  0
    7.1046   -0.1369   18.9365 C   0  0  0  0  0  0  0  0  0  0  0  0
    8.3950   -3.7632   21.9005 H   0  0  0  0  0  0  0  0  0  0  0  0
    6.7783   -4.3602   22.4069 H   0  0  0  0  0  0  0  0  0  0  0  0
    7.6360   -5.6150   20.4801 H   0  0  0  0  0  0  0  0  0  0  0  0
    6.1605   -4.6847   20.0518 H   0  0  0  0  0  0  0  0  0  0  0  0
    7.7772   -4.0877   19.5454 H   0  0  0  0  0  0  0  0  0  0  0  0
   10.0368   -1.6214   20.7730 H   0  0  0  0  0  0  0  0  0  0  0  0
   12.1245   -1.8521   22.0408 H   0  0  0  0  0  0  0  0  0  0  0  0
   14.6160   -2.1503   24.5164 H   0  0  0  0  0  0  0  0  0  0  0  0
   13.6001   -3.0740   23.3583 H   0  0  0  0  0  0  0  0  0  0  0  0
   13.8051   -1.3008   23.1572 H   0  0  0  0  0  0  0  0  0  0  0  0
   13.3768   -3.0243   26.3801 H   0  0  0  0  0  0  0  0  0  0  0  0
   11.5962   -2.8248   26.5062 H   0  0  0  0  0  0  0  0  0  0  0  0
   12.2892   -3.9670   25.3054 H   0  0  0  0  0  0  0  0  0  0  0  0
   13.6265   -0.5891   26.0843 H   0  0  0  0  0  0  0  0  0  0  0  0
   12.7525    0.2708   24.7717 H   0  0  0  0  0  0  0  0  0  0  0  0
   11.8468   -0.3679   26.1853 H   0  0  0  0  0  0  0  0  0  0  0  0
    9.9248   -1.7868   25.6969 H   0  0  0  0  0  0  0  0  0  0  0  0
    7.8318   -1.5433   24.4398 H   0  0  0  0  0  0  0  0  0  0  0  0
    6.3537    0.2341   22.1993 H   0  0  0  0  0  0  0  0  0  0  0  0
    7.2252    1.5598   23.4775 H   0  0  0  0  0  0  0  0  0  0  0  0
    9.3619    3.3382   22.7471 H   0  0  0  0  0  0  0  0  0  0  0  0
    8.6548    3.1264   24.3847 H   0  0  0  0  0  0  0  0  0  0  0  0
   11.0474    2.5597   24.3594 H   0  0  0  0  0  0  0  0  0  0  0  0
   10.0394    1.1181   24.7228 H   0  0  0  0  0  0  0  0  0  0  0  0
   10.7466    1.3300   23.0852 H   0  0  0  0  0  0  0  0  0  0  0  0
    4.8523    1.3823   20.9042 H   0  0  0  0  0  0  0  0  0  0  0  0
    3.9774    1.9855   18.6688 H   0  0  0  0  0  0  0  0  0  0  0  0
    5.1573    1.1883   16.6791 H   0  0  0  0  0  0  0  0  0  0  0  0
    7.9903   -0.7517   19.0014 H   0  0  0  0  0  0  0  0  0  0  0  0
  1  2  2  0
  2  3  1  0
  2  5  1  0
  3  4  1  0
  3 28  1  1
  3 29  1  0
  4 30  1  1
  4 31  1  0
  4 32  1  0
  5  6  1  0
  5 16  1  0
  6  7  2  0
  6 15  1  0
  7  8  1  0
  7 33  1  0
  8  9  2  0
  8 34  1  0
 10  9  1  6
  9 14  1  0
 10 11  1  0
 10 12  1  0
 10 13  1  0
 11 35  1  1
 11 36  1  0
 11 37  1  0
 12 38  1  1
 12 39  1  0
 12 40  1  0
 13 41  1  1
 13 42  1  0
 13 43  1  0
 14 15  2  0
 14 44  1  0
 15 45  1  0
 16 17  1  0
 16 22  1  0
 16 46  1  1
 17 18  2  0
 17 19  1  0
 19 20  1  0
 19 47  1  0
 20 21  1  0
 20 48  1  6
 20 49  1  0
 21 50  1  1
 21 51  1  0
 21 52  1  0
 22 23  2  0
 22 27  1  0
 23 25  1  0
 23 53  1  0
 24 26  1  0
 24 27  2  0
 25 26  2  0
 25 54  1  0
 26 55  1  0
 27 56  1  0
M  END
$$$$
