LIG(A-305)
     RDKit          3D

 52 56  0  0  0  0  0  0  0  0999 V2000
   13.6091   -2.0063   24.8068 S   0  0  0  0  0  0  0  0  0  0  0  0
    7.3104   -0.1861   19.8437 N   0  0  0  0  0  0  0  0  0  0  0  0
    9.6479   -0.3172   22.6934 N   0  0  0  0  0  0  0  0  0  0  0  0
    6.6751    0.4459   17.8738 N   0  0  0  0  0  0  0  0  0  0  0  0
    8.1625   -0.8681   20.7976 C   0  0  1  0  0  0  0  0  0  0  0  0
   13.8218   -1.8914   23.1097 C   0  0  0  0  0  0  0  0  0  0  0  0
    6.4083   -5.9247   27.3331 C   0  0  1  0  0  0  0  0  0  0  0  0
    6.7145   -3.5718   27.6510 O   0  0  0  0  0  0  0  0  0  0  0  0
   10.8120    0.3958   23.2071 C   0  0  1  0  0  0  0  0  0  0  0  0
    5.7783    0.9390   18.7929 C   0  0  0  0  0  0  0  0  0  0  0  0
    5.4497    0.8581   21.2000 C   0  0  0  0  0  0  0  0  0  0  0  0
    8.2171   -3.4700   25.1127 C   0  0  0  0  0  0  0  0  0  0  0  0
    4.2977    1.6171   21.0371 C   0  0  0  0  0  0  0  0  0  0  0  0
    3.8936    2.0411   19.7722 C   0  0  0  0  0  0  0  0  0  0  0  0
   12.8818   -1.0534   22.5539 C   0  0  0  0  0  0  0  0  0  0  0  0
    9.1259   -1.3991   23.4765 C   0  0  0  0  0  0  0  0  0  0  0  0
    4.9992   -6.2227   26.8913 C   0  0  1  0  0  0  0  0  0  0  0  0
    6.9703   -4.5698   26.9820 C   0  0  0  0  0  0  0  0  0  0  0  0
    9.5388   -2.7111   23.2475 C   0  0  0  0  0  0  0  0  0  0  0  0
   11.9840   -0.5043   23.5130 C   0  0  0  0  0  0  0  0  0  0  0  0
   12.2762   -0.9362   24.7749 C   0  0  0  0  0  0  0  0  0  0  0  0
    5.2744   -5.9676   28.3243 C   0  0  2  0  0  0  0  0  0  0  0  0
    8.2541   -1.1330   24.5296 C   0  0  0  0  0  0  0  0  0  0  0  0
    9.1107    0.0998   21.5064 C   0  0  0  0  0  0  0  0  0  0  0  0
    7.5852   -0.2282   18.5147 N   0  0  0  0  0  0  0  0  0  0  0  0
    9.3757    1.1868   21.0143 O   0  0  0  0  0  0  0  0  0  0  0  0
    6.1735    0.5310   20.0619 C   0  0  0  0  0  0  0  0  0  0  0  0
    4.6284    1.7100   18.6401 C   0  0  0  0  0  0  0  0  0  0  0  0
    7.8052   -2.1579   25.3427 C   0  0  0  0  0  0  0  0  0  0  0  0
    9.0899   -3.7361   24.0616 C   0  0  0  0  0  0  0  0  0  0  0  0
    7.7741   -4.5659   25.8918 N   0  0  0  0  0  0  0  0  0  0  0  0
    7.5303   -1.3622   21.5500 H   0  0  0  0  0  0  0  0  0  0  0  0
    8.7583   -1.6245   20.2656 H   0  0  0  0  0  0  0  0  0  0  0  0
   14.5897   -2.4069   22.5519 H   0  0  0  0  0  0  0  0  0  0  0  0
    7.1146   -6.7679   27.3475 H   0  0  0  0  0  0  0  0  0  0  0  0
   11.1273    1.1343   22.4555 H   0  0  0  0  0  0  0  0  0  0  0  0
   10.5215    0.9152   24.1323 H   0  0  0  0  0  0  0  0  0  0  0  0
    5.7710    0.5336   22.1787 H   0  0  0  0  0  0  0  0  0  0  0  0
    3.7075    1.8823   21.9019 H   0  0  0  0  0  0  0  0  0  0  0  0
    2.9972    2.6350   19.6706 H   0  0  0  0  0  0  0  0  0  0  0  0
   12.8304   -0.8346   21.4975 H   0  0  0  0  0  0  0  0  0  0  0  0
    4.4416   -5.4817   26.2996 H   0  0  0  0  0  0  0  0  0  0  0  0
    4.7321   -7.2357   26.5560 H   0  0  0  0  0  0  0  0  0  0  0  0
   10.2119   -2.9283   22.4313 H   0  0  0  0  0  0  0  0  0  0  0  0
   11.7266   -0.6355   25.6547 H   0  0  0  0  0  0  0  0  0  0  0  0
    4.9208   -5.0378   28.7937 H   0  0  0  0  0  0  0  0  0  0  0  0
    5.2113   -6.7918   29.0500 H   0  0  0  0  0  0  0  0  0  0  0  0
    7.9266   -0.1202   24.7124 H   0  0  0  0  0  0  0  0  0  0  0  0
    4.3143    2.0436   17.6621 H   0  0  0  0  0  0  0  0  0  0  0  0
    7.1326   -1.9409   26.1594 H   0  0  0  0  0  0  0  0  0  0  0  0
    9.4187   -4.7487   23.8803 H   0  0  0  0  0  0  0  0  0  0  0  0
    8.1007   -5.4634   25.5956 H   0  0  0  0  0  0  0  0  0  0  0  0
  1  6  1  0
  1 21  1  0
  2  5  1  0
  2 25  1  0
  2 27  1  0
  3  9  1  0
  3 16  1  0
  3 24  1  0
  4 10  1  0
  4 25  2  0
  5 24  1  0
  5 32  1  1
  5 33  1  0
  6 15  2  0
  6 34  1  0
  7 17  1  0
  7 18  1  0
  7 22  1  0
  7 35  1  1
  8 18  2  0
  9 20  1  0
  9 36  1  6
  9 37  1  0
 10 27  2  0
 10 28  1  0
 11 13  2  0
 11 27  1  0
 11 38  1  0
 12 29  1  0
 12 30  2  0
 12 31  1  0
 13 14  1  0
 13 39  1  0
 14 28  2  0
 14 40  1  0
 15 20  1  0
 15 41  1  0
 16 19  2  0
 16 23  1  0
 17 22  1  0
 17 42  1  6
 17 43  1  0
 18 31  1  0
 19 30  1  0
 19 44  1  0
 20 21  2  0
 21 45  1  0
 22 46  1  1
 22 47  1  0
 23 29  2  0
 23 48  1  0
 24 26  2  0
 28 49  1  0
 29 50  1  0
 30 51  1  0
 31 52  1  0
M  END
$$$$
