LIG(A-305)
     RDKit          3D

 34 35  0  0  0  0  0  0  0  0999 V2000
   11.2610   -3.6965   27.0741 Cl  0  0  0  0  0  0  0  0  0  0  0  0
   11.9239   -2.7605   25.7641 C   0  0  0  0  0  0  0  0  0  0  0  0
   13.2829   -2.8005   25.5279 C   0  0  0  0  0  0  0  0  0  0  0  0
   13.8098   -1.9695   24.5529 C   0  0  0  0  0  0  0  0  0  0  0  0
   12.9797   -1.1215   23.8329 C   0  0  0  0  0  0  0  0  0  0  0  0
   11.0808   -1.9405   25.0401 C   0  0  0  0  0  0  0  0  0  0  0  0
   11.6077   -1.1015   24.0631 C   0  0  0  0  0  0  0  0  0  0  0  0
   10.6926   -0.1986   23.2681 C   0  0  1  0  0  0  0  0  0  0  0  0
    9.5966   -0.9656   22.4892 C   0  0  1  0  0  0  0  0  0  0  0  0
    8.8925   -0.1066   21.4603 C   0  0  0  0  0  0  0  0  0  0  0  0
    9.3774    0.9504   21.0642 O   0  0  0  0  0  0  0  0  0  0  0  0
    7.7114   -0.6017   21.0224 N   0  0  0  0  0  0  0  0  0  0  0  0
    6.9113   -0.0467   19.9874 C   0  0  0  0  0  0  0  0  0  0  0  0
    5.7363    0.6663   20.3005 C   0  0  0  0  0  0  0  0  0  0  0  0
    5.2475    0.8223   21.7176 C   0  0  1  0  0  0  0  0  0  0  0  0
    7.2872   -0.1487   18.6474 C   0  0  0  0  0  0  0  0  0  0  0  0
    6.5981    0.3972   17.6404 N   0  0  0  0  0  0  0  0  0  0  0  0
    5.4851    1.0722   17.9505 C   0  0  0  0  0  0  0  0  0  0  0  0
    5.0252    1.2292   19.2436 C   0  0  0  0  0  0  0  0  0  0  0  0
   13.9215   -3.4649   26.0909 H   0  0  0  0  0  0  0  0  0  0  0  0
   14.8709   -1.9815   24.3521 H   0  0  0  0  0  0  0  0  0  0  0  0
   13.4042   -0.4688   23.0845 H   0  0  0  0  0  0  0  0  0  0  0  0
   10.0179   -1.9504   25.2314 H   0  0  0  0  0  0  0  0  0  0  0  0
   10.2028    0.4999   23.9625 H   0  0  0  0  0  0  0  0  0  0  0  0
   11.3012    0.3673   22.5473 H   0  0  0  0  0  0  0  0  0  0  0  0
   10.0637   -1.8179   21.9741 H   0  0  0  0  0  0  0  0  0  0  0  0
    8.8499   -1.3356   23.2073 H   0  0  0  0  0  0  0  0  0  0  0  0
    7.3720   -1.4310   21.4662 H   0  0  0  0  0  0  0  0  0  0  0  0
    6.0128    1.3389   22.3152 H   0  0  0  0  0  0  0  0  0  0  0  0
    4.3190    1.4122   21.7222 H   0  0  0  0  0  0  0  0  0  0  0  0
    5.0533   -0.1704   22.1497 H   0  0  0  0  0  0  0  0  0  0  0  0
    8.1854   -0.6998   18.4105 H   0  0  0  0  0  0  0  0  0  0  0  0
    4.9165    1.5177   17.1477 H   0  0  0  0  0  0  0  0  0  0  0  0
    4.1193    1.7854   19.4338 H   0  0  0  0  0  0  0  0  0  0  0  0
  1  2  1  0
  2  3  2  0
  2  6  1  0
  3  4  1  0
  3 20  1  0
  4  5  2  0
  4 21  1  0
  5  7  1  0
  5 22  1  0
  6  7  2  0
  6 23  1  0
  7  8  1  0
  8  9  1  0
  8 24  1  1
  8 25  1  0
  9 10  1  0
  9 26  1  6
  9 27  1  0
 10 11  2  0
 10 12  1  0
 12 13  1  0
 12 28  1  0
 13 14  2  0
 13 16  1  0
 14 15  1  0
 14 19  1  0
 15 29  1  1
 15 30  1  0
 15 31  1  0
 16 17  2  0
 16 32  1  0
 17 18  1  0
 18 19  2  0
 18 33  1  0
 19 34  1  0
M  END
$$$$
