LIG(A-306)
     RDKit          3D

 31 32  0  0  0  0  0  0  0  0999 V2000
   14.0027   -1.4283   21.4860 Cl  0  0  0  0  0  0  0  0  0  0  0  0
   12.6904   -0.7252   22.3913 C   0  0  0  0  0  0  0  0  0  0  0  0
   12.9536    0.2966   23.2809 C   0  0  0  0  0  0  0  0  0  0  0  0
   11.8964    0.8629   23.9727 C   0  0  0  0  0  0  0  0  0  0  0  0
   10.5999    0.4232   23.7519 C   0  0  0  0  0  0  0  0  0  0  0  0
   11.4060   -1.1829   22.1696 C   0  0  0  0  0  0  0  0  0  0  0  0
   10.3377   -0.5878   22.8342 C   0  0  0  0  0  0  0  0  0  0  0  0
    8.9170   -0.9715   22.4882 C   0  0  1  0  0  0  0  0  0  0  0  0
    8.3051   -0.0448   21.4553 C   0  0  0  0  0  0  0  0  0  0  0  0
    8.8498    1.0092   21.1223 O   0  0  0  0  0  0  0  0  0  0  0  0
    7.1413   -0.4881   20.9263 N   0  0  0  0  0  0  0  0  0  0  0  0
    6.4710    0.0690   19.8127 C   0  0  0  0  0  0  0  0  0  0  0  0
    5.3856    0.9352   20.0007 C   0  0  0  0  0  0  0  0  0  0  0  0
    4.8767    1.2486   21.3825 C   0  0  2  0  0  0  0  0  0  0  0  0
    3.7942    2.0366   21.3750 F   0  0  0  0  0  0  0  0  0  0  0  0
    5.7854    1.8897   22.1246 F   0  0  0  0  0  0  0  0  0  0  0  0
    4.5134    0.1549   22.0545 F   0  0  0  0  0  0  0  0  0  0  0  0
    6.8979   -0.1771   18.5097 C   0  0  0  0  0  0  0  0  0  0  0  0
    6.3327    0.3875   17.4379 N   0  0  0  0  0  0  0  0  0  0  0  0
    5.3054    1.2179   17.6451 C   0  0  0  0  0  0  0  0  0  0  0  0
    4.7913    1.5244   18.8928 C   0  0  0  0  0  0  0  0  0  0  0  0
   13.9635    0.6474   23.4342 H   0  0  0  0  0  0  0  0  0  0  0  0
   12.0823    1.6506   24.6877 H   0  0  0  0  0  0  0  0  0  0  0  0
    9.7841    0.8715   24.2993 H   0  0  0  0  0  0  0  0  0  0  0  0
   11.2316   -1.9986   21.4837 H   0  0  0  0  0  0  0  0  0  0  0  0
    8.9148   -1.9965   22.0890 H   0  0  0  0  0  0  0  0  0  0  0  0
    8.3075   -0.9329   23.4031 H   0  0  0  0  0  0  0  0  0  0  0  0
    6.7167   -1.2816   21.3624 H   0  0  0  0  0  0  0  0  0  0  0  0
    7.7243   -0.8557   18.3583 H   0  0  0  0  0  0  0  0  0  0  0  0
    4.8471    1.6793   16.7828 H   0  0  0  0  0  0  0  0  0  0  0  0
    3.9554    2.1997   19.0013 H   0  0  0  0  0  0  0  0  0  0  0  0
  1  2  1  0
  2  3  2  0
  2  6  1  0
  3  4  1  0
  3 22  1  0
  4  5  2  0
  4 23  1  0
  5  7  1  0
  5 24  1  0
  6  7  2  0
  6 25  1  0
  7  8  1  0
  8  9  1  0
  8 26  1  6
  8 27  1  0
  9 10  2  0
  9 11  1  0
 11 12  1  0
 11 28  1  0
 12 13  2  0
 12 18  1  0
 13 14  1  0
 13 21  1  0
 14 15  1  6
 14 16  1  0
 14 17  1  0
 18 19  2  0
 18 29  1  0
 19 20  1  0
 20 21  2  0
 20 30  1  0
 21 31  1  0
M  END
$$$$
