LIG(A-305)
     RDKit          3D

 34 35  0  0  1  0  0  0  0  0999 V2000
   13.8477   -1.8396   21.2211 Cl  0  0  0  0  0  0  0  0  0  0  0  0
   12.6317   -1.0975   22.2201 C   0  0  0  0  0  0  0  0  0  0  0  0
   13.0047   -0.1434   23.1470 C   0  0  0  0  0  0  0  0  0  0  0  0
   12.0347    0.3756   23.9950 C   0  0  0  0  0  0  0  0  0  0  0  0
   10.7127   -0.0205   23.8701 C   0  0  0  0  0  0  0  0  0  0  0  0
   11.3187   -1.5016   22.0842 C   0  0  0  0  0  0  0  0  0  0  0  0
   10.3387   -0.9376   22.8932 C   0  0  0  0  0  0  0  0  0  0  0  0
    8.8717   -1.2457   22.6162 C   0  0  1  0  0  0  0  0  0  0  0  0
    7.9978   -1.1736   23.8713 C   0  0  1  0  0  0  0  0  0  0  0  0
    8.4157   -0.3158   21.4872 C   0  0  0  0  0  0  0  0  0  0  0  0
    9.0586    0.6852   21.1771 O   0  0  0  0  0  0  0  0  0  0  0  0
    7.2587   -0.6719   20.8822 N   0  0  0  0  0  0  0  0  0  0  0  0
    6.6276    0.0630   19.8652 C   0  0  0  0  0  0  0  0  0  0  0  0
    5.4766    0.8160   20.1522 C   0  0  0  0  0  0  0  0  0  0  0  0
    4.9716    1.0021   21.5592 C   0  0  1  0  0  0  0  0  0  0  0  0
    4.8605    1.4629   19.0882 C   0  0  0  0  0  0  0  0  0  0  0  0
    5.4104    1.3688   17.8231 C   0  0  0  0  0  0  0  0  0  0  0  0
    6.5255    0.6828   17.5482 N   0  0  0  0  0  0  0  0  0  0  0  0
    7.1145    0.0369   18.5592 C   0  0  0  0  0  0  0  0  0  0  0  0
   14.0293    0.1919   23.2109 H   0  0  0  0  0  0  0  0  0  0  0  0
   12.3121    1.0910   24.7550 H   0  0  0  0  0  0  0  0  0  0  0  0
    9.9665    0.3861   24.5367 H   0  0  0  0  0  0  0  0  0  0  0  0
   11.0542   -2.2517   21.3535 H   0  0  0  0  0  0  0  0  0  0  0  0
    8.8167   -2.2763   22.2357 H   0  0  0  0  0  0  0  0  0  0  0  0
    6.9554   -1.4048   23.6066 H   0  0  0  0  0  0  0  0  0  0  0  0
    8.3584   -1.9030   24.6114 H   0  0  0  0  0  0  0  0  0  0  0  0
    8.0518   -0.1612   24.2979 H   0  0  0  0  0  0  0  0  0  0  0  0
    6.8212   -1.5200   21.1811 H   0  0  0  0  0  0  0  0  0  0  0  0
    5.7448    1.4982   22.1642 H   0  0  0  0  0  0  0  0  0  0  0  0
    4.0638    1.6231   21.5437 H   0  0  0  0  0  0  0  0  0  0  0  0
    4.7371    0.0207   21.9972 H   0  0  0  0  0  0  0  0  0  0  0  0
    3.9586    2.0350   19.2480 H   0  0  0  0  0  0  0  0  0  0  0  0
    4.9119    1.8777   17.0114 H   0  0  0  0  0  0  0  0  0  0  0  0
    8.0097   -0.5318   18.3548 H   0  0  0  0  0  0  0  0  0  0  0  0
  1  2  1  0
  2  3  2  0
  2  6  1  0
  3  4  1  0
  3 20  1  0
  4  5  2  0
  4 21  1  0
  5  7  1  0
  5 22  1  0
  6  7  2  0
  6 23  1  0
  7  8  1  0
  8  9  1  0
  8 10  1  0
  8 24  1  6
  9 25  1  6
  9 26  1  0
  9 27  1  0
 10 11  2  0
 10 12  1  0
 12 13  1  0
 12 28  1  0
 13 14  2  0
 13 19  1  0
 14 15  1  0
 14 16  1  0
 15 29  1  1
 15 30  1  0
 15 31  1  0
 16 17  2  0
 16 32  1  0
 17 18  1  0
 17 33  1  0
 18 19  2  0
 19 34  1  0
M  END
$$$$
