LIG(A-305)
     RDKit          3D

 26 27  0  0  0  0  0  0  0  0999 V2000
    9.3544    0.8934   20.8550 O   0  0  0  0  0  0  0  0  0  0  0  0
    8.6504    0.0244   21.3601 C   0  0  0  0  0  0  0  0  0  0  0  0
    9.1204   -0.8116   22.5321 C   0  0  1  0  0  0  0  0  0  0  0  0
   10.5924   -0.5686   22.7600 C   0  0  0  0  0  0  0  0  0  0  0  0
   11.0284    0.4044   23.6500 C   0  0  0  0  0  0  0  0  0  0  0  0
   12.3715    0.7433   23.7300 C   0  0  0  0  0  0  0  0  0  0  0  0
   13.3014    0.0983   22.9300 C   0  0  0  0  0  0  0  0  0  0  0  0
   11.5313   -1.2367   21.9830 C   0  0  0  0  0  0  0  0  0  0  0  0
   12.8644   -0.8987   22.0810 C   0  0  0  0  0  0  0  0  0  0  0  0
   14.0283   -1.8198   21.1760 Cl  0  0  0  0  0  0  0  0  0  0  0  0
    7.3454   -0.1525   21.0041 N   0  0  0  0  0  0  0  0  0  0  0  0
    6.8283    0.1545   19.7331 C   0  0  0  0  0  0  0  0  0  0  0  0
    5.5283    0.2085   19.3311 C   0  0  0  0  0  0  0  0  0  0  0  0
    5.5213    0.4565   18.0181 N   0  0  0  0  0  0  0  0  0  0  0  0
    6.7723    0.5274   17.5191 N   0  0  0  0  0  0  0  0  0  0  0  0
    7.5713    0.3364   18.5621 C   0  0  0  0  0  0  0  0  0  0  0  0
    8.5574   -0.5292   23.4340 H   0  0  0  0  0  0  0  0  0  0  0  0
    8.9532   -1.8767   22.3140 H   0  0  0  0  0  0  0  0  0  0  0  0
   10.3135    0.9032   24.2875 H   0  0  0  0  0  0  0  0  0  0  0  0
   12.6930    1.5117   24.4173 H   0  0  0  0  0  0  0  0  0  0  0  0
   14.3459    0.3698   22.9699 H   0  0  0  0  0  0  0  0  0  0  0  0
   11.2181   -2.0172   21.3055 H   0  0  0  0  0  0  0  0  0  0  0  0
    6.7181   -0.5233   21.6890 H   0  0  0  0  0  0  0  0  0  0  0  0
    4.6603    0.0751   19.9597 H   0  0  0  0  0  0  0  0  0  0  0  0
    4.6907    0.5747   17.4702 H   0  0  0  0  0  0  0  0  0  0  0  0
    8.6501    0.3233   18.5130 H   0  0  0  0  0  0  0  0  0  0  0  0
  1  2  2  0
  2  3  1  0
  2 11  1  0
  3  4  1  0
  3 17  1  1
  3 18  1  0
  4  5  2  0
  4  8  1  0
  5  6  1  0
  5 19  1  0
  6  7  2  0
  6 20  1  0
  7  9  1  0
  7 21  1  0
  8  9  2  0
  8 22  1  0
  9 10  1  0
 11 12  1  0
 11 23  1  0
 12 13  2  0
 12 16  1  0
 13 14  1  0
 13 24  1  0
 14 15  1  0
 14 25  1  0
 15 16  2  0
 16 26  1  0
M  END
$$$$
