LIG(A-305)
     RDKit          3D

 56 58  0  0  0  0  0  0  0  0999 V2000
    8.0029    2.3558   33.5101 O   0  0  0  0  0  0  0  0  0  0  0  0
    8.2119    1.9257   32.3852 C   0  0  0  0  0  0  0  0  0  0  0  0
    9.2549    0.9888   32.1692 N   0  0  0  0  0  0  0  0  0  0  0  0
   10.0091    0.5459   33.3401 C   0  0  1  0  0  0  0  0  0  0  0  0
    9.5199    0.4497   30.9472 C   0  0  0  0  0  0  0  0  0  0  0  0
    7.4078    2.2806   31.2032 C   0  0  0  0  0  0  0  0  0  0  0  0
    7.6547    1.6785   29.9542 C   0  0  0  0  0  0  0  0  0  0  0  0
    6.8556    2.0114   28.8583 C   0  0  0  0  0  0  0  0  0  0  0  0
    5.8376    2.9373   29.0003 C   0  0  0  0  0  0  0  0  0  0  0  0
    5.6096    3.5454   30.2202 C   0  0  0  0  0  0  0  0  0  0  0  0
    6.3837    3.2215   31.3222 C   0  0  0  0  0  0  0  0  0  0  0  0
    8.7648    0.7166   29.8602 C   0  0  0  0  0  0  0  0  0  0  0  0
    9.0518    0.0685   28.6702 N   0  0  0  0  0  0  0  0  0  0  0  0
    8.2968   -1.0116   28.2064 C   0  0  0  0  0  0  0  0  0  0  0  0
    7.4669   -1.5626   28.9185 O   0  0  0  0  0  0  0  0  0  0  0  0
    8.5777   -1.4636   26.9504 N   0  0  0  0  0  0  0  0  0  0  0  0
    7.8148   -2.5547   26.3735 C   0  0  1  0  0  0  0  0  0  0  0  0
    8.5689   -3.8357   26.4236 C   0  0  0  0  0  0  0  0  0  0  0  0
    8.4880   -4.5486   27.5806 O   0  0  0  0  0  0  0  0  0  0  0  0
    9.2601   -5.6695   27.3956 C   0  0  0  0  0  0  0  0  0  0  0  0
    9.8050   -5.6646   26.1846 C   0  0  0  0  0  0  0  0  0  0  0  0
    9.3589   -4.4737   25.5475 C   0  0  0  0  0  0  0  0  0  0  0  0
    9.6626   -0.9106   26.1303 C   0  0  1  0  0  0  0  0  0  0  0  0
    9.1905    0.0263   25.0272 C   0  0  1  0  0  0  0  0  0  0  0  0
   10.3434    0.5633   24.2141 C   0  0  1  0  0  0  0  0  0  0  0  0
   11.0744   -0.5357   23.6671 O   0  0  0  0  0  0  0  0  0  0  0  0
   12.1704   -0.2517   22.8050 C   0  0  1  0  0  0  0  0  0  0  0  0
   13.3144    0.4135   23.4999 C   0  0  1  0  0  0  0  0  0  0  0  0
   12.5814   -1.5137   22.1011 C   0  0  1  0  0  0  0  0  0  0  0  0
    9.3265    0.0647   34.0560 H   0  0  0  0  0  0  0  0  0  0  0  0
   10.7805   -0.1737   33.0286 H   0  0  0  0  0  0  0  0  0  0  0  0
   10.4882    1.4136   33.8172 H   0  0  0  0  0  0  0  0  0  0  0  0
   10.3645   -0.2153   30.8437 H   0  0  0  0  0  0  0  0  0  0  0  0
    7.0324    1.5459   27.8999 H   0  0  0  0  0  0  0  0  0  0  0  0
    5.2169    3.1866   28.1523 H   0  0  0  0  0  0  0  0  0  0  0  0
    4.8222    4.2784   30.3150 H   0  0  0  0  0  0  0  0  0  0  0  0
    6.1949    3.6970   32.2734 H   0  0  0  0  0  0  0  0  0  0  0  0
    9.8270    0.3851   28.1237 H   0  0  0  0  0  0  0  0  0  0  0  0
    6.8763   -2.6705   26.9356 H   0  0  0  0  0  0  0  0  0  0  0  0
    7.5866   -2.3154   25.3244 H   0  0  0  0  0  0  0  0  0  0  0  0
    9.4039   -6.4463   28.1321 H   0  0  0  0  0  0  0  0  0  0  0  0
   10.4579   -6.4163   25.7661 H   0  0  0  0  0  0  0  0  0  0  0  0
    9.6086   -4.1459   24.5492 H   0  0  0  0  0  0  0  0  0  0  0  0
   10.3444   -0.3529   26.7893 H   0  0  0  0  0  0  0  0  0  0  0  0
   10.2050   -1.7469   25.6649 H   0  0  0  0  0  0  0  0  0  0  0  0
    8.5104   -0.5237   24.3602 H   0  0  0  0  0  0  0  0  0  0  0  0
    8.6532    0.8707   25.4835 H   0  0  0  0  0  0  0  0  0  0  0  0
    9.9585    1.1933   23.3987 H   0  0  0  0  0  0  0  0  0  0  0  0
   11.0035    1.1615   24.8594 H   0  0  0  0  0  0  0  0  0  0  0  0
   11.8174    0.4450   22.0303 H   0  0  0  0  0  0  0  0  0  0  0  0
   14.1224    0.6030   22.7780 H   0  0  0  0  0  0  0  0  0  0  0  0
   12.9767    1.3676   23.9310 H   0  0  0  0  0  0  0  0  0  0  0  0
   13.6859   -0.2404   24.3026 H   0  0  0  0  0  0  0  0  0  0  0  0
   13.4287   -1.3019   21.4324 H   0  0  0  0  0  0  0  0  0  0  0  0
   12.8806   -2.2672   22.8445 H   0  0  0  0  0  0  0  0  0  0  0  0
   11.7356   -1.8964   21.5111 H   0  0  0  0  0  0  0  0  0  0  0  0
  1  2  2  0
  2  3  1  0
  2  6  1  0
  3  4  1  0
  3  5  1  0
  4 30  1  1
  4 31  1  0
  4 32  1  0
  5 12  2  0
  5 33  1  0
  6  7  2  0
  6 11  1  0
  7  8  1  0
  7 12  1  0
  8  9  2  0
  8 34  1  0
  9 10  1  0
  9 35  1  0
 10 11  2  0
 10 36  1  0
 11 37  1  0
 12 13  1  0
 13 14  1  0
 13 38  1  0
 14 15  2  0
 14 16  1  0
 16 17  1  0
 16 23  1  0
 17 18  1  0
 17 39  1  1
 17 40  1  0
 18 19  1  0
 18 22  2  0
 19 20  1  0
 20 21  2  0
 20 41  1  0
 21 22  1  0
 21 42  1  0
 22 43  1  0
 23 24  1  0
 23 44  1  1
 23 45  1  0
 24 25  1  0
 24 46  1  6
 24 47  1  0
 25 26  1  0
 25 48  1  6
 25 49  1  0
 26 27  1  0
 27 28  1  0
 27 29  1  0
 27 50  1  6
 28 51  1  6
 28 52  1  0
 28 53  1  0
 29 54  1  6
 29 55  1  0
 29 56  1  0
M  END
$$$$
