LIG(B-307)
     RDKit          3D

 39 41  0  0  0  0  0  0  0  0999 V2000
   47.2209   -0.5299  -19.7147 C   0  0  0  0  0  0  0  0  0  0  0  0
   42.1199   -2.8550  -24.7785 C   0  0  0  0  0  0  0  0  0  0  0  0
   40.8055   -3.0701  -25.1548 C   0  0  0  0  0  0  0  0  0  0  0  0
   39.7802   -2.4894  -24.4258 C   0  0  0  0  0  0  0  0  0  0  0  0
   40.0793   -1.7055  -23.3164 C   0  0  0  0  0  0  0  0  0  0  0  0
   41.4027   -1.4944  -22.9351 C   0  0  0  0  0  0  0  0  0  0  0  0
   48.5603    1.4742  -19.4865 C   0  0  0  0  0  0  0  0  0  0  0  0
   47.0208   -1.7234  -20.6071 C   0  0  0  0  0  0  0  0  0  0  0  0
   46.8286    0.8958  -17.8311 C   0  0  0  0  0  0  0  0  0  0  0  0
   46.5239   -0.2871  -18.5881 C   0  0  0  0  0  0  0  0  0  0  0  0
   43.8853   -1.8503  -23.2904 C   0  0  1  0  0  0  0  0  0  0  0  0
   45.6089   -0.4202  -22.2217 C   0  0  1  0  0  0  0  0  0  0  0  0
   44.1159   -0.6889  -22.3139 C   0  0  2  0  0  0  0  0  0  0  0  0
   44.6148   -3.0993  -22.7817 C   0  0  1  0  0  0  0  0  0  0  0  0
   46.0989   -2.7948  -22.5888 C   0  0  1  0  0  0  0  0  0  0  0  0
   42.4410   -2.0720  -23.6682 C   0  0  0  0  0  0  0  0  0  0  0  0
   48.2059    0.3248  -20.1396 N   0  0  0  0  0  0  0  0  0  0  0  0
   47.8385    1.6949  -18.3465 N   0  0  0  0  0  0  0  0  0  0  0  0
   46.2890   -1.6216  -21.7242 N   0  0  0  0  0  0  0  0  0  0  0  0
   49.4359    2.2296  -19.8730 O   0  0  0  0  0  0  0  0  0  0  0  0
   46.2707    1.2344  -16.8098 O   0  0  0  0  0  0  0  0  0  0  0  0
   47.5667   -2.7523  -20.2185 O   0  0  0  0  0  0  0  0  0  0  0  0
   38.7920   -0.9805  -22.3856 Cl  0  0  0  0  0  0  0  0  0  0  0  0
   38.1299   -2.7752  -24.9152 Cl  0  0  0  0  0  0  0  0  0  0  0  0
   42.9146   -3.3028  -25.3565 H   0  0  0  0  0  0  0  0  0  0  0  0
   40.5802   -3.6871  -26.0120 H   0  0  0  0  0  0  0  0  0  0  0  0
   41.6253   -0.8839  -22.0725 H   0  0  0  0  0  0  0  0  0  0  0  0
   45.7519   -0.9675  -18.2603 H   0  0  0  0  0  0  0  0  0  0  0  0
   44.3997   -1.5635  -24.2195 H   0  0  0  0  0  0  0  0  0  0  0  0
   45.9981   -0.1639  -23.2182 H   0  0  0  0  0  0  0  0  0  0  0  0
   45.7895    0.4166  -21.5311 H   0  0  0  0  0  0  0  0  0  0  0  0
   43.7258   -0.9570  -21.3210 H   0  0  0  0  0  0  0  0  0  0  0  0
   43.5997    0.2108  -22.6800 H   0  0  0  0  0  0  0  0  0  0  0  0
   44.1786   -3.4098  -21.8207 H   0  0  0  0  0  0  0  0  0  0  0  0
   44.5017   -3.9112  -23.5151 H   0  0  0  0  0  0  0  0  0  0  0  0
   46.5872   -3.6651  -22.1262 H   0  0  0  0  0  0  0  0  0  0  0  0
   46.5557   -2.5965  -23.5696 H   0  0  0  0  0  0  0  0  0  0  0  0
   48.7030    0.0935  -20.9829 H   0  0  0  0  0  0  0  0  0  0  0  0
   48.0652    2.5209  -17.8300 H   0  0  0  0  0  0  0  0  0  0  0  0
  1  8  1  0
  1 10  2  0
  1 17  1  0
  2  3  2  0
  2 16  1  0
  2 25  1  0
  3  4  1  0
  3 26  1  0
  4  5  2  0
  4 24  1  0
  5  6  1  0
  5 23  1  0
  6 16  2  0
  6 27  1  0
  7 17  1  0
  7 18  1  0
  7 20  2  0
  8 19  1  0
  8 22  2  0
  9 10  1  0
  9 18  1  0
  9 21  2  0
 10 28  1  0
 11 13  1  0
 11 14  1  0
 11 16  1  0
 11 29  1  6
 12 13  1  0
 12 19  1  0
 12 30  1  6
 12 31  1  0
 13 32  1  1
 13 33  1  0
 14 15  1  0
 14 34  1  1
 14 35  1  0
 15 19  1  0
 15 36  1  1
 15 37  1  0
 17 38  1  0
 18 39  1  0
M  END
$$$$
