LIG(A-306)
     RDKit          3D

 37 40  0  0  0  0  0  0  0  0999 V2000
    6.6812   -1.7714   21.5064 C   0  0  0  0  0  0  0  0  0  0  0  0
    7.5513   -1.9993   22.5182 N   0  0  0  0  0  0  0  0  0  0  0  0
    5.6691   -2.3746   21.2200 O   0  0  0  0  0  0  0  0  0  0  0  0
    8.7303   -1.1621   22.4111 C   0  0  1  0  0  0  0  0  0  0  0  0
    7.1402   -0.6053   20.8407 N   0  0  0  0  0  0  0  0  0  0  0  0
    9.0042    0.7922   21.0035 O   0  0  0  0  0  0  0  0  0  0  0  0
    9.3183   -0.4861   23.6715 C   0  0  1  0  0  0  0  0  0  0  0  0
    6.2838    0.5929   17.4764 N   0  0  0  0  0  0  0  0  0  0  0  0
   10.6168   -1.3040   23.4915 C   0  0  2  0  0  0  0  0  0  0  0  0
   11.9679   -0.5859   23.5818 C   0  0  1  0  0  0  0  0  0  0  0  0
   12.5255   -0.4944   25.0012 C   0  0  1  0  0  0  0  0  0  0  0  0
   13.4017   -1.7227   24.6854 C   0  0  1  0  0  0  0  0  0  0  0  0
   13.2522   -1.3500   23.2009 C   0  0  1  0  0  0  0  0  0  0  0  0
   10.1001   -1.8358   22.1375 C   0  0  1  0  0  0  0  0  0  0  0  0
    8.3632   -0.1823   21.3462 C   0  0  0  0  0  0  0  0  0  0  0  0
    6.4282    0.0714   19.7933 C   0  0  0  0  0  0  0  0  0  0  0  0
    6.8949   -0.0063   18.4922 C   0  0  0  0  0  0  0  0  0  0  0  0
    5.1931    1.3270   17.7218 C   0  0  0  0  0  0  0  0  0  0  0  0
    4.6826    1.4339   18.9980 C   0  0  0  0  0  0  0  0  0  0  0  0
    5.3007    0.8245   20.0578 C   0  0  0  0  0  0  0  0  0  0  0  0
    3.5479    2.1653   19.1915 F   0  0  0  0  0  0  0  0  0  0  0  0
    7.3994   -2.6637   23.2499 H   0  0  0  0  0  0  0  0  0  0  0  0
    9.4540    0.6015   23.5777 H   0  0  0  0  0  0  0  0  0  0  0  0
    8.7705   -0.7086   24.5992 H   0  0  0  0  0  0  0  0  0  0  0  0
   10.6102   -2.1315   24.2162 H   0  0  0  0  0  0  0  0  0  0  0  0
   11.9318    0.4013   23.0980 H   0  0  0  0  0  0  0  0  0  0  0  0
   13.0897    0.4263   25.2109 H   0  0  0  0  0  0  0  0  0  0  0  0
   11.7813   -0.6572   25.7947 H   0  0  0  0  0  0  0  0  0  0  0  0
   14.4297   -1.6666   25.0728 H   0  0  0  0  0  0  0  0  0  0  0  0
   12.9569   -2.6893   24.9643 H   0  0  0  0  0  0  0  0  0  0  0  0
   13.0928   -2.2058   22.5284 H   0  0  0  0  0  0  0  0  0  0  0  0
   14.0601   -0.7176   22.8045 H   0  0  0  0  0  0  0  0  0  0  0  0
   10.0577   -2.9330   22.0704 H   0  0  0  0  0  0  0  0  0  0  0  0
   10.6330   -1.4353   21.2625 H   0  0  0  0  0  0  0  0  0  0  0  0
    7.7908   -0.5765   18.2955 H   0  0  0  0  0  0  0  0  0  0  0  0
    4.7053    1.8436   16.9084 H   0  0  0  0  0  0  0  0  0  0  0  0
    4.9205    0.9290   21.0632 H   0  0  0  0  0  0  0  0  0  0  0  0
  1  2  1  0
  1  3  2  0
  1  5  1  0
  4  2  1  1
  2 22  1  0
  4  7  1  0
  4 14  1  0
  4 15  1  0
  5 15  1  0
  5 16  1  0
  6 15  2  0
  7  9  1  0
  7 23  1  6
  7 24  1  0
  8 17  2  0
  8 18  1  0
  9 10  1  0
  9 14  1  0
  9 25  1  1
 10 11  1  0
 10 13  1  0
 10 26  1  6
 11 12  1  0
 11 27  1  1
 11 28  1  0
 12 13  1  0
 12 29  1  1
 12 30  1  0
 13 31  1  6
 13 32  1  0
 14 33  1  1
 14 34  1  0
 16 17  1  0
 16 20  2  0
 17 35  1  0
 18 19  2  0
 18 36  1  0
 19 20  1  0
 19 21  1  0
 20 37  1  0
M  END
$$$$
