LIG(A-305)
     RDKit          3D

 35 37  0  0  0  0  0  0  0  0999 V2000
    9.0364    0.8826   21.0562 O   0  0  0  0  0  0  0  0  0  0  0  0
    8.4805   -0.1544   21.3973 C   0  0  0  0  0  0  0  0  0  0  0  0
    8.9696   -0.9693   22.5783 C   0  0  1  0  0  0  0  0  0  0  0  0
   10.4396   -0.7272   22.8221 C   0  0  0  0  0  0  0  0  0  0  0  0
   10.8637    0.1398   23.8191 C   0  0  0  0  0  0  0  0  0  0  0  0
   12.2037    0.4668   23.9539 C   0  0  0  0  0  0  0  0  0  0  0  0
   13.1486   -0.0922   23.1059 C   0  0  0  0  0  0  0  0  0  0  0  0
   11.3905   -1.3063   21.9881 C   0  0  0  0  0  0  0  0  0  0  0  0
   12.7255   -0.9932   22.1520 C   0  0  0  0  0  0  0  0  0  0  0  0
   13.9125   -1.8262   21.1849 Cl  0  0  0  0  0  0  0  0  0  0  0  0
    7.3944   -0.6494   20.7764 N   0  0  0  0  0  0  0  0  0  0  0  0
    6.7083   -0.0055   19.7234 C   0  0  0  0  0  0  0  0  0  0  0  0
    5.5873    0.7735   20.0405 C   0  0  0  0  0  0  0  0  0  0  0  0
    5.0244    1.1286   21.3895 C   0  0  1  0  0  0  0  0  0  0  0  0
    3.6854    1.7925   21.0586 C   0  0  1  0  0  0  0  0  0  0  0  0
    3.7233    2.1845   19.5786 C   0  0  1  0  0  0  0  0  0  0  0  0
    4.8742    1.3915   19.0165 C   0  0  0  0  0  0  0  0  0  0  0  0
    5.3301    1.2074   17.7295 C   0  0  0  0  0  0  0  0  0  0  0  0
    6.4081    0.4864   17.3994 N   0  0  0  0  0  0  0  0  0  0  0  0
    7.0782   -0.1115   18.3874 C   0  0  0  0  0  0  0  0  0  0  0  0
    8.4026   -0.6808   23.4756 H   0  0  0  0  0  0  0  0  0  0  0  0
    8.8092   -2.0376   22.3709 H   0  0  0  0  0  0  0  0  0  0  0  0
   10.1401    0.5653   24.4987 H   0  0  0  0  0  0  0  0  0  0  0  0
   12.5135    1.1597   24.7223 H   0  0  0  0  0  0  0  0  0  0  0  0
   14.1922    0.1725   23.1910 H   0  0  0  0  0  0  0  0  0  0  0  0
   11.0862   -1.9974   21.2160 H   0  0  0  0  0  0  0  0  0  0  0  0
    7.0485   -1.5364   21.0823 H   0  0  0  0  0  0  0  0  0  0  0  0
    4.8749    0.2272   22.0021 H   0  0  0  0  0  0  0  0  0  0  0  0
    5.6882    1.8268   21.9205 H   0  0  0  0  0  0  0  0  0  0  0  0
    2.8608    1.0874   21.2400 H   0  0  0  0  0  0  0  0  0  0  0  0
    3.5455    2.6884   21.6815 H   0  0  0  0  0  0  0  0  0  0  0  0
    2.7816    1.9133   19.0789 H   0  0  0  0  0  0  0  0  0  0  0  0
    3.9009    3.2641   19.4652 H   0  0  0  0  0  0  0  0  0  0  0  0
    4.7780    1.6787   16.9298 H   0  0  0  0  0  0  0  0  0  0  0  0
    7.9461   -0.7038   18.1377 H   0  0  0  0  0  0  0  0  0  0  0  0
  1  2  2  0
  2  3  1  0
  2 11  1  0
  3  4  1  0
  3 21  1  1
  3 22  1  0
  4  5  2  0
  4  8  1  0
  5  6  1  0
  5 23  1  0
  6  7  2  0
  6 24  1  0
  7  9  1  0
  7 25  1  0
  8  9  2  0
  8 26  1  0
  9 10  1  0
 11 12  1  0
 11 27  1  0
 12 13  2  0
 12 20  1  0
 13 14  1  0
 13 17  1  0
 14 15  1  0
 14 28  1  1
 14 29  1  0
 15 16  1  0
 15 30  1  6
 15 31  1  0
 16 17  1  0
 16 32  1  6
 16 33  1  0
 17 18  2  0
 18 19  1  0
 18 34  1  0
 19 20  2  0
 20 35  1  0
M  END
$$$$
