LIG(A-305)
     RDKit          3D

 35 37  0  0  0  0  0  0  0  0999 V2000
   14.1257   -1.4138   21.2371 Cl  0  0  0  0  0  0  0  0  0  0  0  0
   12.8918   -0.7336   22.2581 C   0  0  0  0  0  0  0  0  0  0  0  0
   13.2180    0.2924   23.1210 C   0  0  0  0  0  0  0  0  0  0  0  0
   12.2481    0.7596   23.9950 C   0  0  0  0  0  0  0  0  0  0  0  0
   10.9730    0.2197   23.9731 C   0  0  0  0  0  0  0  0  0  0  0  0
   11.6208   -1.2655   22.2092 C   0  0  0  0  0  0  0  0  0  0  0  0
   10.6349   -0.7653   23.0522 C   0  0  0  0  0  0  0  0  0  0  0  0
    9.1718   -1.1152   22.7983 C   0  0  2  0  0  0  0  0  0  0  0  0
    8.2029   -1.4490   23.9294 C   0  0  1  0  0  0  0  0  0  0  0  0
    8.6317   -2.5282   22.9975 C   0  0  2  0  0  0  0  0  0  0  0  0
    8.5699   -0.2973   21.6393 C   0  0  0  0  0  0  0  0  0  0  0  0
    9.0389    0.7917   21.3372 O   0  0  0  0  0  0  0  0  0  0  0  0
    7.5158   -0.8262   20.9894 N   0  0  0  0  0  0  0  0  0  0  0  0
    6.7958   -0.1342   19.9884 C   0  0  0  0  0  0  0  0  0  0  0  0
    5.6239    0.5669   20.3244 C   0  0  0  0  0  0  0  0  0  0  0  0
    5.0939    0.6071   21.7344 C   0  0  1  0  0  0  0  0  0  0  0  0
    7.2487   -0.0844   18.6713 C   0  0  0  0  0  0  0  0  0  0  0  0
    6.6347    0.6026   17.7053 N   0  0  0  0  0  0  0  0  0  0  0  0
    5.5128    1.2567   18.0333 C   0  0  0  0  0  0  0  0  0  0  0  0
    4.9809    1.2629   19.3063 C   0  0  0  0  0  0  0  0  0  0  0  0
   14.2084    0.7229   23.1158 H   0  0  0  0  0  0  0  0  0  0  0  0
   12.4877    1.5466   24.6947 H   0  0  0  0  0  0  0  0  0  0  0  0
   10.2334    0.5676   24.6790 H   0  0  0  0  0  0  0  0  0  0  0  0
   11.3925   -2.0655   21.5205 H   0  0  0  0  0  0  0  0  0  0  0  0
    8.5567   -1.4520   24.9709 H   0  0  0  0  0  0  0  0  0  0  0  0
    7.1696   -1.0734   23.8943 H   0  0  0  0  0  0  0  0  0  0  0  0
    9.3010   -3.3253   23.3534 H   0  0  0  0  0  0  0  0  0  0  0  0
    7.9138   -2.9467   22.2767 H   0  0  0  0  0  0  0  0  0  0  0  0
    7.2280   -1.7542   21.2264 H   0  0  0  0  0  0  0  0  0  0  0  0
    5.8476    1.0574   22.3972 H   0  0  0  0  0  0  0  0  0  0  0  0
    4.1739    1.2092   21.7631 H   0  0  0  0  0  0  0  0  0  0  0  0
    4.8732   -0.4162   22.0723 H   0  0  0  0  0  0  0  0  0  0  0  0
    8.1450   -0.6312   18.4185 H   0  0  0  0  0  0  0  0  0  0  0  0
    4.9976    1.8082   17.2608 H   0  0  0  0  0  0  0  0  0  0  0  0
    4.0698    1.8054   19.5112 H   0  0  0  0  0  0  0  0  0  0  0  0
  1  2  1  0
  2  3  2  0
  2  6  1  0
  3  4  1  0
  3 21  1  0
  4  5  2  0
  4 22  1  0
  5  7  1  0
  5 23  1  0
  6  7  2  0
  6 24  1  0
  7  8  1  0
  8  9  1  0
  8 10  1  0
  8 11  1  6
  9 10  1  0
  9 25  1  1
  9 26  1  0
 10 27  1  1
 10 28  1  0
 11 12  2  0
 11 13  1  0
 13 14  1  0
 13 29  1  0
 14 15  2  0
 14 17  1  0
 15 16  1  0
 15 20  1  0
 16 30  1  1
 16 31  1  0
 16 32  1  0
 17 18  2  0
 17 33  1  0
 18 19  1  0
 19 20  2  0
 19 34  1  0
 20 35  1  0
M  END
$$$$
