LIG(A-305)
     RDKit          3D

 31 32  0  0  0  0  0  0  0  0999 V2000
    8.7846   -2.2217   22.4771 F   0  0  0  0  0  0  0  0  0  0  0  0
   10.9023    0.2236   23.9380 C   0  0  0  0  0  0  0  0  0  0  0  0
    6.4805    0.6076   17.5528 N   0  0  0  0  0  0  0  0  0  0  0  0
   12.7565   -1.0034   22.3272 C   0  0  0  0  0  0  0  0  0  0  0  0
    5.5094    0.8448   20.1757 C   0  0  0  0  0  0  0  0  0  0  0  0
   13.1893   -0.0893   23.2671 C   0  0  0  0  0  0  0  0  0  0  0  0
    5.0013    1.0279   21.5837 C   0  0  1  0  0  0  0  0  0  0  0  0
   10.4754   -0.6696   22.9621 C   0  0  0  0  0  0  0  0  0  0  0  0
    4.8884    1.4876   19.1097 C   0  0  0  0  0  0  0  0  0  0  0  0
    8.4924   -0.0919   21.4929 C   0  0  0  0  0  0  0  0  0  0  0  0
    7.3545   -0.5590   20.9399 N   0  0  0  0  0  0  0  0  0  0  0  0
    9.0963    0.9022   21.1159 O   0  0  0  0  0  0  0  0  0  0  0  0
    6.6415    0.0639   19.8888 C   0  0  0  0  0  0  0  0  0  0  0  0
    9.0094   -0.8987   22.7050 C   0  0  1  0  0  0  0  0  0  0  0  0
    7.0785   -0.0242   18.5689 C   0  0  0  0  0  0  0  0  0  0  0  0
   12.2503    0.5127   24.0900 C   0  0  0  0  0  0  0  0  0  0  0  0
   11.4215   -1.3076   22.1691 C   0  0  0  0  0  0  0  0  0  0  0  0
    5.3994    1.3446   17.8357 C   0  0  0  0  0  0  0  0  0  0  0  0
    8.2544   -0.5807   23.7960 F   0  0  0  0  0  0  0  0  0  0  0  0
   13.9246   -1.8114   21.3223 Cl  0  0  0  0  0  0  0  0  0  0  0  0
   10.1775    0.6968   24.5839 H   0  0  0  0  0  0  0  0  0  0  0  0
   14.2380    0.1517   23.3592 H   0  0  0  0  0  0  0  0  0  0  0  0
    4.1333    1.7035   21.5759 H   0  0  0  0  0  0  0  0  0  0  0  0
    4.7029    0.0524   21.9954 H   0  0  0  0  0  0  0  0  0  0  0  0
    5.7974    1.4610   22.2072 H   0  0  0  0  0  0  0  0  0  0  0  0
    4.0114    2.0951   19.2781 H   0  0  0  0  0  0  0  0  0  0  0  0
    6.9849   -1.4147   21.3022 H   0  0  0  0  0  0  0  0  0  0  0  0
    7.9442   -0.6337   18.3552 H   0  0  0  0  0  0  0  0  0  0  0  0
   12.5691    1.2088   24.8517 H   0  0  0  0  0  0  0  0  0  0  0  0
   11.1130   -2.0364   21.4344 H   0  0  0  0  0  0  0  0  0  0  0  0
    4.9009    1.8540   17.0243 H   0  0  0  0  0  0  0  0  0  0  0  0
 14  1  1  6
  2  8  1  0
  2 16  2  0
  2 21  1  0
  3 15  1  0
  3 18  2  0
  4  6  2  0
  4 17  1  0
  4 20  1  0
  5  7  1  0
  5  9  2  0
  5 13  1  0
  6 16  1  0
  6 22  1  0
  7 23  1  6
  7 24  1  0
  7 25  1  0
  8 14  1  0
  8 17  2  0
  9 18  1  0
  9 26  1  0
 10 11  1  0
 10 12  2  0
 10 14  1  0
 11 13  1  0
 11 27  1  0
 13 15  2  0
 14 19  1  0
 15 28  1  0
 16 29  1  0
 17 30  1  0
 18 31  1  0
M  END
$$$$
