LIG(A-306)
     RDKit          3D

 52 56  0  0  1  0  0  0  0  0999 V2000
    8.6893    3.3839   25.8266 O   0  0  0  0  0  0  0  0  0  0  0  0
    7.9117    2.4214   25.1230 S   0  0  1  0  0  0  0  0  0  0  0  0
    6.8895    1.6822   25.7794 O   0  0  0  0  0  0  0  0  0  0  0  0
    7.2493    3.2231   23.9039 N   0  0  0  0  0  0  0  0  0  0  0  0
    7.7727    3.5377   22.5463 C   0  0  1  0  0  0  0  0  0  0  0  0
    6.6702    4.5970   22.4205 C   0  0  1  0  0  0  0  0  0  0  0  0
    5.9949    3.9845   23.6524 C   0  0  2  0  0  0  0  0  0  0  0  0
    8.9206    1.3657   24.4626 N   0  0  0  0  0  0  0  0  0  0  0  0
   10.3088    1.4143   24.9339 C   0  0  1  0  0  0  0  0  0  0  0  0
    8.4424   -0.0022   24.1903 C   0  0  1  0  0  0  0  0  0  0  0  0
    9.2037   -0.5806   22.9934 C   0  0  2  0  0  0  0  0  0  0  0  0
   10.7032   -0.3585   23.1377 C   0  0  0  0  0  0  0  0  0  0  0  0
   11.2034    0.6190   24.0174 C   0  0  0  0  0  0  0  0  0  0  0  0
   12.5755    0.8699   24.0518 C   0  0  0  0  0  0  0  0  0  0  0  0
   13.4497    0.1743   23.2408 C   0  0  0  0  0  0  0  0  0  0  0  0
   11.5988   -1.0868   22.3487 C   0  0  0  0  0  0  0  0  0  0  0  0
   12.9541   -0.8019   22.4082 C   0  0  0  0  0  0  0  0  0  0  0  0
   14.0560   -1.6671   21.3712 Cl  0  0  0  0  0  0  0  0  0  0  0  0
    8.6935    0.0750   21.7072 C   0  0  0  0  0  0  0  0  0  0  0  0
    9.2685    1.0333   21.1915 O   0  0  0  0  0  0  0  0  0  0  0  0
    7.5245   -0.4307   21.2284 N   0  0  0  0  0  0  0  0  0  0  0  0
    6.7640    0.0512   20.1338 C   0  0  0  0  0  0  0  0  0  0  0  0
    5.5688    0.7991   20.3943 C   0  0  0  0  0  0  0  0  0  0  0  0
    5.0304    1.0011   21.6929 C   0  0  0  0  0  0  0  0  0  0  0  0
    3.8877    1.7314   21.8754 C   0  0  0  0  0  0  0  0  0  0  0  0
    3.2292    2.3022   20.7937 C   0  0  0  0  0  0  0  0  0  0  0  0
    3.7031    2.1311   19.5237 C   0  0  0  0  0  0  0  0  0  0  0  0
    4.8766    1.3698   19.2873 C   0  0  0  0  0  0  0  0  0  0  0  0
    5.4040    1.1464   17.9920 C   0  0  0  0  0  0  0  0  0  0  0  0
    6.5028    0.4467   17.7465 N   0  0  0  0  0  0  0  0  0  0  0  0
    7.1534   -0.0751   18.7970 C   0  0  0  0  0  0  0  0  0  0  0  0
    8.7961    3.9407   22.5341 H   0  0  0  0  0  0  0  0  0  0  0  0
    7.6955    2.7110   21.8248 H   0  0  0  0  0  0  0  0  0  0  0  0
    7.0162    5.6319   22.5590 H   0  0  0  0  0  0  0  0  0  0  0  0
    6.0777    4.5290   21.4962 H   0  0  0  0  0  0  0  0  0  0  0  0
    5.7360    4.7094   24.4383 H   0  0  0  0  0  0  0  0  0  0  0  0
    5.1186    3.3584   23.4281 H   0  0  0  0  0  0  0  0  0  0  0  0
   10.6485    2.4603   24.9537 H   0  0  0  0  0  0  0  0  0  0  0  0
   10.3621    0.9922   25.9483 H   0  0  0  0  0  0  0  0  0  0  0  0
    8.6147   -0.6336   25.0744 H   0  0  0  0  0  0  0  0  0  0  0  0
    7.3665    0.0241   23.9625 H   0  0  0  0  0  0  0  0  0  0  0  0
    9.0084   -1.6617   22.9401 H   0  0  0  0  0  0  0  0  0  0  0  0
   12.9605    1.6217   24.7248 H   0  0  0  0  0  0  0  0  0  0  0  0
   14.5071    0.3933   23.2599 H   0  0  0  0  0  0  0  0  0  0  0  0
   11.2364   -1.8673   21.6961 H   0  0  0  0  0  0  0  0  0  0  0  0
    7.1611   -1.2328   21.7023 H   0  0  0  0  0  0  0  0  0  0  0  0
    5.5300    0.5721   22.5489 H   0  0  0  0  0  0  0  0  0  0  0  0
    3.4932    1.8656   22.8717 H   0  0  0  0  0  0  0  0  0  0  0  0
    2.3356    2.8860   20.9578 H   0  0  0  0  0  0  0  0  0  0  0  0
    3.1795    2.5794   18.6923 H   0  0  0  0  0  0  0  0  0  0  0  0
    4.8775    1.5730   17.1511 H   0  0  0  0  0  0  0  0  0  0  0  0
    8.0516   -0.6391   18.5935 H   0  0  0  0  0  0  0  0  0  0  0  0
  1  2  2  0
  2  3  2  0
  2  4  1  6
  2  8  1  0
  4  5  1  0
  4  7  1  0
  5  6  1  0
  5 32  1  1
  5 33  1  0
  6  7  1  0
  6 34  1  1
  6 35  1  0
  7 36  1  1
  7 37  1  0
  8  9  1  0
  8 10  1  0
  9 13  1  0
  9 38  1  1
  9 39  1  0
 10 11  1  0
 10 40  1  1
 10 41  1  0
 11 12  1  0
 11 19  1  0
 11 42  1  6
 12 13  2  0
 12 16  1  0
 13 14  1  0
 14 15  2  0
 14 43  1  0
 15 17  1  0
 15 44  1  0
 16 17  2  0
 16 45  1  0
 17 18  1  0
 19 20  2  0
 19 21  1  0
 21 22  1  0
 21 46  1  0
 22 23  2  0
 22 31  1  0
 23 24  1  0
 23 28  1  0
 24 25  2  0
 24 47  1  0
 25 26  1  0
 25 48  1  0
 26 27  2  0
 26 49  1  0
 27 28  1  0
 27 50  1  0
 28 29  2  0
 29 30  1  0
 29 51  1  0
 30 31  2  0
 31 52  1  0
M  END
$$$$
