LIG(A-306)
     RDKit          3D

 40 42  0  0  1  0  0  0  0  0999 V2000
  -14.1521    6.1262  -22.0222 O   0  0  0  0  0  0  0  0  0  0  0  0
  -14.1328    4.9171  -22.2465 C   0  0  0  0  0  0  0  0  0  0  0  0
  -13.4688    3.7027  -21.6104 C   0  0  1  0  0  0  0  0  0  0  0  0
  -14.7193    4.1729  -23.2026 N   0  0  0  0  0  0  0  0  0  0  0  0
  -14.3286    2.8915  -22.5859 C   0  0  1  0  0  0  0  0  0  0  0  0
  -13.4337    2.1237  -23.4156 O   0  0  0  0  0  0  0  0  0  0  0  0
  -13.0453    0.8861  -22.9439 C   0  0  0  0  0  0  0  0  0  0  0  0
  -13.9806   -0.0487  -22.5307 C   0  0  0  0  0  0  0  0  0  0  0  0
  -13.5232   -1.2713  -22.0827 C   0  0  0  0  0  0  0  0  0  0  0  0
  -14.6733   -2.4465  -21.5122 Cl  0  0  0  0  0  0  0  0  0  0  0  0
  -12.1747   -1.5754  -22.0356 C   0  0  0  0  0  0  0  0  0  0  0  0
  -11.6870    0.6019  -22.9214 C   0  0  0  0  0  0  0  0  0  0  0  0
  -11.2439   -0.6329  -22.4578 C   0  0  0  0  0  0  0  0  0  0  0  0
   -9.7657   -0.9390  -22.3861 C   0  0  1  0  0  0  0  0  0  0  0  0
   -9.0874   -0.1781  -21.2650 C   0  0  0  0  0  0  0  0  0  0  0  0
   -9.5351    0.8851  -20.8384 O   0  0  0  0  0  0  0  0  0  0  0  0
   -7.9546   -0.7470  -20.7939 N   0  0  0  0  0  0  0  0  0  0  0  0
   -7.1946   -0.1869  -19.7410 C   0  0  0  0  0  0  0  0  0  0  0  0
   -6.1359    0.6907  -20.0362 C   0  0  0  0  0  0  0  0  0  0  0  0
   -5.7230    0.9946  -21.4552 C   0  0  1  0  0  0  0  0  0  0  0  0
   -7.5154   -0.4221  -18.4033 C   0  0  0  0  0  0  0  0  0  0  0  0
   -6.8643    0.1427  -17.3774 N   0  0  0  0  0  0  0  0  0  0  0  0
   -5.8643    0.9811  -17.6727 C   0  0  0  0  0  0  0  0  0  0  0  0
   -5.4705    1.2760  -18.9641 C   0  0  0  0  0  0  0  0  0  0  0  0
  -12.3828    3.6263  -21.7680 H   0  0  0  0  0  0  0  0  0  0  0  0
  -13.6965    3.5484  -20.5453 H   0  0  0  0  0  0  0  0  0  0  0  0
  -15.2325    4.4044  -24.0291 H   0  0  0  0  0  0  0  0  0  0  0  0
  -15.1458    2.3294  -22.1102 H   0  0  0  0  0  0  0  0  0  0  0  0
  -15.0373    0.1730  -22.5585 H   0  0  0  0  0  0  0  0  0  0  0  0
  -11.8471   -2.5386  -21.6732 H   0  0  0  0  0  0  0  0  0  0  0  0
  -10.9748    1.3383  -23.2634 H   0  0  0  0  0  0  0  0  0  0  0  0
   -9.6333   -2.0176  -22.2155 H   0  0  0  0  0  0  0  0  0  0  0  0
   -9.2973   -0.6586  -23.3411 H   0  0  0  0  0  0  0  0  0  0  0  0
   -7.6406   -1.6013  -21.2082 H   0  0  0  0  0  0  0  0  0  0  0  0
   -6.5703    1.4408  -21.9966 H   0  0  0  0  0  0  0  0  0  0  0  0
   -4.8796    1.7006  -21.4483 H   0  0  0  0  0  0  0  0  0  0  0  0
   -5.4177    0.0636  -21.9555 H   0  0  0  0  0  0  0  0  0  0  0  0
   -8.3313   -1.0947  -18.1835 H   0  0  0  0  0  0  0  0  0  0  0  0
   -5.3361    1.4531  -16.8574 H   0  0  0  0  0  0  0  0  0  0  0  0
   -4.6509    1.9569  -19.1398 H   0  0  0  0  0  0  0  0  0  0  0  0
  1  2  2  0
  2  3  1  0
  2  4  1  0
  3  5  1  0
  3 25  1  1
  3 26  1  0
  4  5  1  0
  4 27  1  0
  5  6  1  0
  5 28  1  1
  6  7  1  0
  7  8  2  0
  7 12  1  0
  8  9  1  0
  8 29  1  0
  9 10  1  0
  9 11  2  0
 11 13  1  0
 11 30  1  0
 12 13  2  0
 12 31  1  0
 13 14  1  0
 14 15  1  0
 14 32  1  1
 14 33  1  0
 15 16  2  0
 15 17  1  0
 17 18  1  0
 17 34  1  0
 18 19  2  0
 18 21  1  0
 19 20  1  0
 19 24  1  0
 20 35  1  6
 20 36  1  0
 20 37  1  0
 21 22  2  0
 21 38  1  0
 22 23  1  0
 23 24  2  0
 23 39  1  0
 24 40  1  0
M  END
$$$$
