LIG(A-305)
     RDKit          3D

 33 34  0  0  1  0  0  0  0  0999 V2000
    6.5867    0.4950   17.2883 N   0  0  0  0  0  0  0  0  0  0  0  0
    5.6379    0.6662   19.8883 C   0  0  0  0  0  0  0  0  0  0  0  0
   13.1330    0.0479   23.2029 C   0  0  0  0  0  0  0  0  0  0  0  0
    8.9160    1.0870   21.0761 O   0  0  0  0  0  0  0  0  0  0  0  0
   10.4010   -0.4949   22.9791 C   0  0  0  0  0  0  0  0  0  0  0  0
    4.9619    1.3082   18.8613 C   0  0  0  0  0  0  0  0  0  0  0  0
    8.4249    0.0181   21.4302 C   0  0  0  0  0  0  0  0  0  0  0  0
    6.8028   -0.0789   19.6143 C   0  0  0  0  0  0  0  0  0  0  0  0
    7.2198   -0.1270   18.2873 C   0  0  0  0  0  0  0  0  0  0  0  0
   12.2181    0.7170   24.0009 C   0  0  0  0  0  0  0  0  0  0  0  0
   11.3179   -1.1910   22.2011 C   0  0  0  0  0  0  0  0  0  0  0  0
   10.8631    0.4381   23.8970 C   0  0  0  0  0  0  0  0  0  0  0  0
   12.6649   -0.9201   22.3350 C   0  0  0  0  0  0  0  0  0  0  0  0
    4.1100    1.4434   21.5654 C   0  0  1  0  0  0  0  0  0  0  0  0
    7.4799   -0.6399   20.7193 N   0  0  0  0  0  0  0  0  0  0  0  0
    5.2920    0.7203   21.2103 O   0  0  0  0  0  0  0  0  0  0  0  0
    8.3949   -1.9548   22.9003 O   0  0  0  0  0  0  0  0  0  0  0  0
    8.9160   -0.6439   22.7152 C   0  0  1  0  0  0  0  0  0  0  0  0
   13.9128   -1.9922   21.3880 Br  0  0  0  0  0  0  0  0  0  0  0  0
    5.4828    1.1921   17.5873 C   0  0  0  0  0  0  0  0  0  0  0  0
   14.1869    0.2777   23.2582 H   0  0  0  0  0  0  0  0  0  0  0  0
    4.0633    1.8766   19.0504 H   0  0  0  0  0  0  0  0  0  0  0  0
    8.1048   -0.6993   18.0516 H   0  0  0  0  0  0  0  0  0  0  0  0
   12.5617    1.4587   24.7068 H   0  0  0  0  0  0  0  0  0  0  0  0
   10.9797   -1.9376   21.4977 H   0  0  0  0  0  0  0  0  0  0  0  0
   10.1609    0.9519   24.5366 H   0  0  0  0  0  0  0  0  0  0  0  0
    3.9646    1.3971   22.6548 H   0  0  0  0  0  0  0  0  0  0  0  0
    4.2151    2.4930   21.2539 H   0  0  0  0  0  0  0  0  0  0  0  0
    3.2412    0.9962   21.0602 H   0  0  0  0  0  0  0  0  0  0  0  0
    7.2484   -1.5740   20.9912 H   0  0  0  0  0  0  0  0  0  0  0  0
    8.8265   -2.3662   23.6399 H   0  0  0  0  0  0  0  0  0  0  0  0
    8.4485   -0.0444   23.5102 H   0  0  0  0  0  0  0  0  0  0  0  0
    4.9678    1.6948   16.7820 H   0  0  0  0  0  0  0  0  0  0  0  0
  1  9  1  0
  1 20  2  0
  2  6  2  0
  2  8  1  0
  2 16  1  0
  3 10  2  0
  3 13  1  0
  3 21  1  0
  4  7  2  0
  5 11  1  0
  5 12  2  0
  5 18  1  0
  6 20  1  0
  6 22  1  0
  7 15  1  0
  7 18  1  0
  8  9  2  0
  8 15  1  0
  9 23  1  0
 10 12  1  0
 10 24  1  0
 11 13  2  0
 11 25  1  0
 12 26  1  0
 13 19  1  0
 14 16  1  0
 14 27  1  1
 14 28  1  0
 14 29  1  0
 15 30  1  0
 17 18  1  0
 17 31  1  0
 18 32  1  1
 20 33  1  0
M  END
$$$$
