LIG(A-305)
     RDKit          3D

 34 35  0  0  0  0  0  0  0  0999 V2000
    7.2987   -0.5037   20.9932 N   0  0  0  0  0  0  0  0  0  0  0  0
    5.3565    1.2760   17.8152 C   0  0  0  0  0  0  0  0  0  0  0  0
    8.4757   -0.0675   21.5112 C   0  0  0  0  0  0  0  0  0  0  0  0
   11.5328   -1.1253   21.9711 C   0  0  0  0  0  0  0  0  0  0  0  0
    9.1198   -0.8704   22.6262 C   0  0  1  0  0  0  0  0  0  0  0  0
   13.2808    0.1729   23.0100 C   0  0  0  0  0  0  0  0  0  0  0  0
   12.3307    0.7899   23.8090 C   0  0  0  0  0  0  0  0  0  0  0  0
   10.9918    0.4488   23.6920 C   0  0  0  0  0  0  0  0  0  0  0  0
    7.0686    0.0202   18.6552 C   0  0  0  0  0  0  0  0  0  0  0  0
    5.4476    0.9461   20.1842 C   0  0  0  0  0  0  0  0  0  0  0  0
    6.5956    0.1862   19.9552 C   0  0  0  0  0  0  0  0  0  0  0  0
    4.8195    1.4870   19.0682 C   0  0  0  0  0  0  0  0  0  0  0  0
    4.9136    1.2121   21.5693 C   0  0  1  0  0  0  0  0  0  0  0  0
    6.7259   -1.7727   21.4453 C   0  0  1  0  0  0  0  0  0  0  0  0
    6.4645    0.5591   17.5922 N   0  0  0  0  0  0  0  0  0  0  0  0
    9.0256    0.9455   21.0941 O   0  0  0  0  0  0  0  0  0  0  0  0
   12.8618   -0.7871   22.1100 C   0  0  0  0  0  0  0  0  0  0  0  0
   10.5798   -0.5113   22.7761 C   0  0  0  0  0  0  0  0  0  0  0  0
   14.0499   -1.6861   21.2150 Cl  0  0  0  0  0  0  0  0  0  0  0  0
    4.8541    1.7143   16.9656 H   0  0  0  0  0  0  0  0  0  0  0  0
   11.2335   -1.8628   21.2411 H   0  0  0  0  0  0  0  0  0  0  0  0
    8.5980   -0.6577   23.5708 H   0  0  0  0  0  0  0  0  0  0  0  0
    9.0348   -1.9422   22.3935 H   0  0  0  0  0  0  0  0  0  0  0  0
   14.3249    0.4371   23.0894 H   0  0  0  0  0  0  0  0  0  0  0  0
   12.6345    1.5389   24.5252 H   0  0  0  0  0  0  0  0  0  0  0  0
   10.2605    0.9352   24.3205 H   0  0  0  0  0  0  0  0  0  0  0  0
    7.9607   -0.5686   18.5003 H   0  0  0  0  0  0  0  0  0  0  0  0
    3.9167    2.0689   19.1816 H   0  0  0  0  0  0  0  0  0  0  0  0
    5.6742    1.7433   22.1603 H   0  0  0  0  0  0  0  0  0  0  0  0
    4.0061    1.8299   21.4999 H   0  0  0  0  0  0  0  0  0  0  0  0
    4.6706    0.2572   22.0581 H   0  0  0  0  0  0  0  0  0  0  0  0
    5.7787   -1.9568   20.9173 H   0  0  0  0  0  0  0  0  0  0  0  0
    7.4301   -2.5899   21.2305 H   0  0  0  0  0  0  0  0  0  0  0  0
    6.5386   -1.7252   22.5282 H   0  0  0  0  0  0  0  0  0  0  0  0
  1  3  1  0
  1 11  1  0
  1 14  1  0
  2 12  2  0
  2 15  1  0
  2 20  1  0
  3  5  1  0
  3 16  2  0
  4 17  2  0
  4 18  1  0
  4 21  1  0
  5 18  1  0
  5 22  1  1
  5 23  1  0
  6  7  2  0
  6 17  1  0
  6 24  1  0
  7  8  1  0
  7 25  1  0
  8 18  2  0
  8 26  1  0
  9 11  1  0
  9 15  2  0
  9 27  1  0
 10 11  2  0
 10 12  1  0
 10 13  1  0
 12 28  1  0
 13 29  1  1
 13 30  1  0
 13 31  1  0
 14 32  1  6
 14 33  1  0
 14 34  1  0
 17 19  1  0
M  END
$$$$
