LIG(A-306)
     RDKit          3D

 40 42  0  0  1  0  0  0  0  0999 V2000
    9.2924    0.9558   21.3345 O   0  0  0  0  0  0  0  0  0  0  0  0
    8.9366    0.0192   22.0346 C   0  0  0  0  0  0  0  0  0  0  0  0
    7.8418   -0.9230   21.5302 C   0  0  1  0  0  0  0  0  0  0  0  0
    7.1933   -0.3928   20.3483 N   0  0  0  0  0  0  0  0  0  0  0  0
    6.0794    0.3863   20.2500 C   0  0  0  0  0  0  0  0  0  0  0  0
    5.2009    0.9236   21.1791 C   0  0  0  0  0  0  0  0  0  0  0  0
    4.1950    1.7581   20.7103 C   0  0  0  0  0  0  0  0  0  0  0  0
    4.0701    2.0324   19.3501 C   0  0  0  0  0  0  0  0  0  0  0  0
    4.9453    1.4771   18.4255 C   0  0  0  0  0  0  0  0  0  0  0  0
    5.9679    0.6521   18.8892 C   0  0  0  0  0  0  0  0  0  0  0  0
    7.0030    0.0259   18.2318 N   0  0  0  0  0  0  0  0  0  0  0  0
    7.7276   -0.5981   19.1182 N   0  0  0  0  0  0  0  0  0  0  0  0
    9.4051   -0.1345   23.2914 N   0  0  0  0  0  0  0  0  0  0  0  0
    9.3139    1.0321   24.1639 C   0  0  1  0  0  0  0  0  0  0  0  0
   10.0656   -1.3095   23.9119 C   0  0  1  0  0  0  0  0  0  0  0  0
    9.3210   -2.6072   23.6152 C   0  0  1  0  0  0  0  0  0  0  0  0
   11.5464   -1.3031   23.5697 C   0  0  0  0  0  0  0  0  0  0  0  0
   12.4990   -1.1490   24.5665 C   0  0  0  0  0  0  0  0  0  0  0  0
   13.8498   -1.1816   24.2639 C   0  0  0  0  0  0  0  0  0  0  0  0
   14.2642   -1.3716   22.9678 C   0  0  0  0  0  0  0  0  0  0  0  0
   13.3332   -1.5140   21.9680 C   0  0  0  0  0  0  0  0  0  0  0  0
   11.9814   -1.4796   22.2636 C   0  0  0  0  0  0  0  0  0  0  0  0
    8.2918   -1.8965   21.2855 H   0  0  0  0  0  0  0  0  0  0  0  0
    7.0901   -1.0552   22.3223 H   0  0  0  0  0  0  0  0  0  0  0  0
    5.2961    0.7005   22.2315 H   0  0  0  0  0  0  0  0  0  0  0  0
    3.5004    2.2003   21.4092 H   0  0  0  0  0  0  0  0  0  0  0  0
    3.2812    2.6867   19.0096 H   0  0  0  0  0  0  0  0  0  0  0  0
    4.8355    1.6802   17.3705 H   0  0  0  0  0  0  0  0  0  0  0  0
    9.7246    0.7834   25.1536 H   0  0  0  0  0  0  0  0  0  0  0  0
    9.8880    1.8625   23.7270 H   0  0  0  0  0  0  0  0  0  0  0  0
    8.2601    1.3299   24.2687 H   0  0  0  0  0  0  0  0  0  0  0  0
   10.0031   -1.1649   25.0006 H   0  0  0  0  0  0  0  0  0  0  0  0
    9.8444   -3.4484   24.0932 H   0  0  0  0  0  0  0  0  0  0  0  0
    8.2966   -2.5407   24.0106 H   0  0  0  0  0  0  0  0  0  0  0  0
    9.2845   -2.7685   22.5277 H   0  0  0  0  0  0  0  0  0  0  0  0
   12.1837   -1.0020   25.5890 H   0  0  0  0  0  0  0  0  0  0  0  0
   14.5804   -1.0571   25.0495 H   0  0  0  0  0  0  0  0  0  0  0  0
   15.3183   -1.4089   22.7360 H   0  0  0  0  0  0  0  0  0  0  0  0
   13.6572   -1.6533   20.9472 H   0  0  0  0  0  0  0  0  0  0  0  0
   11.2576   -1.5913   21.4697 H   0  0  0  0  0  0  0  0  0  0  0  0
  1  2  2  0
  2  3  1  0
  2 13  1  0
  3  4  1  0
  3 23  1  6
  3 24  1  0
  4  5  1  0
  4 12  1  0
  5  6  2  0
  5 10  1  0
  6  7  1  0
  6 25  1  0
  7  8  2  0
  7 26  1  0
  8  9  1  0
  8 27  1  0
  9 10  2  0
  9 28  1  0
 10 11  1  0
 11 12  2  0
 13 14  1  0
 13 15  1  0
 14 29  1  1
 14 30  1  0
 14 31  1  0
 15 16  1  0
 15 17  1  0
 15 32  1  1
 16 33  1  1
 16 34  1  0
 16 35  1  0
 17 18  2  0
 17 22  1  0
 18 19  1  0
 18 36  1  0
 19 20  2  0
 19 37  1  0
 20 21  1  0
 20 38  1  0
 21 22  2  0
 21 39  1  0
 22 40  1  0
M  END
$$$$
