LIG(A-306)
     RDKit          3D

 51 54  0  0  1  0  0  0  0  0999 V2000
   14.2015   -1.5846   21.0192 Cl  0  0  0  0  0  0  0  0  0  0  0  0
   13.2513   -0.7242   22.2015 C   0  0  0  0  0  0  0  0  0  0  0  0
   13.8834    0.1558   23.0635 C   0  0  0  0  0  0  0  0  0  0  0  0
   13.1274    0.8799   23.9671 C   0  0  0  0  0  0  0  0  0  0  0  0
   11.8795   -0.9044   22.2142 C   0  0  0  0  0  0  0  0  0  0  0  0
   11.1042   -0.1634   23.1039 C   0  0  0  0  0  0  0  0  0  0  0  0
   11.7490    0.7214   23.9749 C   0  0  0  0  0  0  0  0  0  0  0  0
   11.0652    1.5000   24.8739 O   0  0  0  0  0  0  0  0  0  0  0  0
    9.8619    0.8856   25.3653 C   0  0  1  0  0  0  0  0  0  0  0  0
    8.9082    0.5155   24.2449 C   0  0  1  0  0  0  0  0  0  0  0  0
    9.5945   -0.2980   23.1279 C   0  0  2  0  0  0  0  0  0  0  0  0
    9.2111   -1.6728   23.0121 O   0  0  0  0  0  0  0  0  0  0  0  0
    9.3947   -2.5003   24.1648 C   0  0  1  0  0  0  0  0  0  0  0  0
    8.9648    0.3039   21.8340 C   0  0  0  0  0  0  0  0  0  0  0  0
    9.4632    1.2833   21.2938 O   0  0  0  0  0  0  0  0  0  0  0  0
    7.8321   -0.2990   21.3905 N   0  0  0  0  0  0  0  0  0  0  0  0
    7.0797    0.0875   20.2556 C   0  0  0  0  0  0  0  0  0  0  0  0
    7.5058   -0.1118   18.9429 C   0  0  0  0  0  0  0  0  0  0  0  0
    6.8838    0.3577   17.8514 N   0  0  0  0  0  0  0  0  0  0  0  0
    5.7712    1.0580   18.0315 C   0  0  0  0  0  0  0  0  0  0  0  0
    5.1980    1.3327   19.2974 C   0  0  0  0  0  0  0  0  0  0  0  0
    5.8674    0.8288   20.4498 C   0  0  0  0  0  0  0  0  0  0  0  0
    5.2852    1.0714   21.7236 C   0  0  0  0  0  0  0  0  0  0  0  0
    4.1090    1.7565   21.8452 C   0  0  0  0  0  0  0  0  0  0  0  0
    3.9921    2.0501   19.4575 C   0  0  0  0  0  0  0  0  0  0  0  0
    3.4636    2.2278   20.7092 C   0  0  0  0  0  0  0  0  0  0  0  0
    1.8809    2.9905   20.8548 S   0  0  1  0  0  0  0  0  0  0  0  0
    1.5106    3.5008   19.5690 O   0  0  0  0  0  0  0  0  0  0  0  0
    1.0091    2.0741   21.5212 O   0  0  0  0  0  0  0  0  0  0  0  0
    2.0439    4.2668   21.8218 N   0  0  0  0  0  0  0  0  0  0  0  0
    2.8001    5.4248   21.3541 C   0  0  1  0  0  0  0  0  0  0  0  0
   14.9562    0.2755   23.0305 H   0  0  0  0  0  0  0  0  0  0  0  0
   13.6038    1.5601   24.6577 H   0  0  0  0  0  0  0  0  0  0  0  0
   11.4151   -1.6110   21.5424 H   0  0  0  0  0  0  0  0  0  0  0  0
   10.1303   -0.0270   25.9178 H   0  0  0  0  0  0  0  0  0  0  0  0
    9.3562    1.5892   26.0430 H   0  0  0  0  0  0  0  0  0  0  0  0
    8.0873   -0.0845   24.6645 H   0  0  0  0  0  0  0  0  0  0  0  0
    8.5011    1.4397   23.8088 H   0  0  0  0  0  0  0  0  0  0  0  0
    9.0618   -3.5241   23.9387 H   0  0  0  0  0  0  0  0  0  0  0  0
   10.4594   -2.5136   24.4407 H   0  0  0  0  0  0  0  0  0  0  0  0
    8.8041   -2.0992   25.0017 H   0  0  0  0  0  0  0  0  0  0  0  0
    7.5001   -1.0853   21.9115 H   0  0  0  0  0  0  0  0  0  0  0  0
    8.4063   -0.6890   18.7935 H   0  0  0  0  0  0  0  0  0  0  0  0
    5.2700    1.4437   17.1560 H   0  0  0  0  0  0  0  0  0  0  0  0
    5.7813    0.7078   22.6113 H   0  0  0  0  0  0  0  0  0  0  0  0
    3.6824    1.9310   22.8219 H   0  0  0  0  0  0  0  0  0  0  0  0
    3.4870    2.4582   18.5945 H   0  0  0  0  0  0  0  0  0  0  0  0
    2.1058    4.0696   22.8002 H   0  0  0  0  0  0  0  0  0  0  0  0
    2.8096    6.1976   22.1369 H   0  0  0  0  0  0  0  0  0  0  0  0
    3.8324    5.1208   21.1265 H   0  0  0  0  0  0  0  0  0  0  0  0
    2.3280    5.8284   20.4463 H   0  0  0  0  0  0  0  0  0  0  0  0
  1  2  1  0
  2  3  2  0
  2  5  1  0
  3  4  1  0
  3 32  1  0
  4  7  2  0
  4 33  1  0
  5  6  2  0
  5 34  1  0
  6  7  1  0
  6 11  1  0
  7  8  1  0
  8  9  1  0
  9 10  1  0
  9 35  1  1
  9 36  1  0
 10 11  1  0
 10 37  1  1
 10 38  1  0
 11 12  1  1
 11 14  1  0
 12 13  1  0
 13 39  1  6
 13 40  1  0
 13 41  1  0
 14 15  2  0
 14 16  1  0
 16 17  1  0
 16 42  1  0
 17 18  2  0
 17 22  1  0
 18 19  1  0
 18 43  1  0
 19 20  2  0
 20 21  1  0
 20 44  1  0
 21 22  2  0
 21 25  1  0
 22 23  1  0
 23 24  2  0
 23 45  1  0
 24 26  1  0
 24 46  1  0
 25 26  2  0
 25 47  1  0
 26 27  1  0
 27 28  2  0
 27 29  2  0
 27 30  1  1
 30 31  1  0
 30 48  1  0
 31 49  1  1
 31 50  1  0
 31 51  1  0
M  END
$$$$
