LIG(A-305)
     RDKit          3D

 24 25  0  0  1  0  0  0  0  0999 V2000
   10.7914   -0.4927   23.3510 Br  0  0  0  0  0  0  0  0  0  0  0  0
    9.2005   -1.3899   22.8431 C   0  0  0  0  0  0  0  0  0  0  0  0
    9.2386   -2.2679   21.7791 C   0  0  0  0  0  0  0  0  0  0  0  0
    8.1056   -3.0140   21.4801 C   0  0  0  0  0  0  0  0  0  0  0  0
    7.8807   -4.1250   20.4812 C   0  0  1  0  0  0  0  0  0  0  0  0
    8.5329   -5.2480   21.0572 O   0  0  0  0  0  0  0  0  0  0  0  0
    6.3968   -4.3952   20.6792 C   0  0  0  0  0  0  0  0  0  0  0  0
    5.7438   -5.2013   20.0302 O   0  0  0  0  0  0  0  0  0  0  0  0
    5.9437   -3.6502   21.7132 N   0  0  0  0  0  0  0  0  0  0  0  0
    6.9386   -2.8451   22.2221 C   0  0  0  0  0  0  0  0  0  0  0  0
    8.0575   -1.2030   23.5971 C   0  0  0  0  0  0  0  0  0  0  0  0
    6.9086   -1.9391   23.3001 C   0  0  0  0  0  0  0  0  0  0  0  0
    5.7286   -1.7472   24.1891 C   0  0  0  0  0  0  0  0  0  0  0  0
    4.7326   -2.4243   24.1482 O   0  0  0  0  0  0  0  0  0  0  0  0
    5.9165   -0.7441   25.0531 O   0  0  0  0  0  0  0  0  0  0  0  0
    4.8715   -0.5322   26.0331 C   0  0  1  0  0  0  0  0  0  0  0  0
   10.1360   -2.3734   21.1876 H   0  0  0  0  0  0  0  0  0  0  0  0
    8.1633   -3.8753   19.4477 H   0  0  0  0  0  0  0  0  0  0  0  0
    7.9096   -5.7471   21.5719 H   0  0  0  0  0  0  0  0  0  0  0  0
    5.0073   -3.6801   22.0630 H   0  0  0  0  0  0  0  0  0  0  0  0
    8.0528   -0.4924   24.4105 H   0  0  0  0  0  0  0  0  0  0  0  0
    5.1417    0.3148   26.6807 H   0  0  0  0  0  0  0  0  0  0  0  0
    3.9248   -0.3122   25.5178 H   0  0  0  0  0  0  0  0  0  0  0  0
    4.7537   -1.4386   26.6452 H   0  0  0  0  0  0  0  0  0  0  0  0
  1  2  1  0
  2  3  2  0
  2 11  1  0
  3  4  1  0
  3 17  1  0
  4  5  1  0
  4 10  2  0
  5  6  1  0
  5  7  1  0
  5 18  1  6
  6 19  1  0
  7  8  2  0
  7  9  1  0
  9 10  1  0
  9 20  1  0
 10 12  1  0
 11 12  2  0
 11 21  1  0
 12 13  1  0
 13 14  2  0
 13 15  1  0
 15 16  1  0
 16 22  1  1
 16 23  1  0
 16 24  1  0
M  END
$$$$
