LIG(A-305)
     RDKit          3D

 33 35  0  0  0  0  0  0  0  0999 V2000
    8.9875    0.6678   20.9171 O   0  0  0  0  0  0  0  0  0  0  0  0
    8.3804   -0.3241   21.3191 C   0  0  0  0  0  0  0  0  0  0  0  0
    8.8605   -1.1401   22.5041 C   0  0  1  0  0  0  0  0  0  0  0  0
   10.3205   -0.8801   22.7851 C   0  0  0  0  0  0  0  0  0  0  0  0
   10.5875    0.1269   23.6350 N   0  0  0  0  0  0  0  0  0  0  0  0
   11.8635    0.5369   23.7300 C   0  0  0  0  0  0  0  0  0  0  0  0
   12.9045   -0.0192   23.0100 C   0  0  0  0  0  0  0  0  0  0  0  0
   11.3014   -1.5362   22.0601 C   0  0  0  0  0  0  0  0  0  0  0  0
   12.5945   -1.0742   22.1830 C   0  0  0  0  0  0  0  0  0  0  0  0
   13.8624   -1.8743   21.2970 Cl  0  0  0  0  0  0  0  0  0  0  0  0
    7.2424   -0.7601   20.7582 N   0  0  0  0  0  0  0  0  0  0  0  0
    6.5404   -0.1462   19.7042 C   0  0  0  0  0  0  0  0  0  0  0  0
    5.3854    0.6269   20.0192 C   0  0  0  0  0  0  0  0  0  0  0  0
    4.8885    0.8029   21.3392 C   0  0  0  0  0  0  0  0  0  0  0  0
    3.8225    1.6230   21.5822 C   0  0  0  0  0  0  0  0  0  0  0  0
    3.1955    2.2949   20.5441 C   0  0  0  0  0  0  0  0  0  0  0  0
    3.6375    2.1599   19.2591 C   0  0  0  0  0  0  0  0  0  0  0  0
    4.7424    1.3258   18.9621 C   0  0  0  0  0  0  0  0  0  0  0  0
    5.2914    1.2058   17.6641 C   0  0  0  0  0  0  0  0  0  0  0  0
    6.3674    0.4877   17.3751 N   0  0  0  0  0  0  0  0  0  0  0  0
    6.9654   -0.1642   18.3792 C   0  0  0  0  0  0  0  0  0  0  0  0
    8.2696   -0.8678   23.3912 H   0  0  0  0  0  0  0  0  0  0  0  0
    8.7213   -2.2090   22.2848 H   0  0  0  0  0  0  0  0  0  0  0  0
   12.0889    1.3472   24.4075 H   0  0  0  0  0  0  0  0  0  0  0  0
   13.9135    0.3568   23.0927 H   0  0  0  0  0  0  0  0  0  0  0  0
   11.0630   -2.3758   21.4240 H   0  0  0  0  0  0  0  0  0  0  0  0
    6.8544   -1.6054   21.1255 H   0  0  0  0  0  0  0  0  0  0  0  0
    5.3590    0.2824   22.1602 H   0  0  0  0  0  0  0  0  0  0  0  0
    3.4648    1.7488   22.5934 H   0  0  0  0  0  0  0  0  0  0  0  0
    2.3488    2.9318   20.7539 H   0  0  0  0  0  0  0  0  0  0  0  0
    3.1400    2.6937   18.4628 H   0  0  0  0  0  0  0  0  0  0  0  0
    4.8030    1.7324   16.8576 H   0  0  0  0  0  0  0  0  0  0  0  0
    7.8431   -0.7479   18.1437 H   0  0  0  0  0  0  0  0  0  0  0  0
  1  2  2  0
  2  3  1  0
  2 11  1  0
  3  4  1  0
  3 22  1  1
  3 23  1  0
  4  5  2  0
  4  8  1  0
  5  6  1  0
  6  7  2  0
  6 24  1  0
  7  9  1  0
  7 25  1  0
  8  9  2  0
  8 26  1  0
  9 10  1  0
 11 12  1  0
 11 27  1  0
 12 13  2  0
 12 21  1  0
 13 14  1  0
 13 18  1  0
 14 15  2  0
 14 28  1  0
 15 16  1  0
 15 29  1  0
 16 17  2  0
 16 30  1  0
 17 18  1  0
 17 31  1  0
 18 19  2  0
 19 20  1  0
 19 32  1  0
 20 21  2  0
 21 33  1  0
M  END
$$$$
