LIG(A-305)
     RDKit          3D

 39 40  0  0  0  0  0  0  0  0999 V2000
    6.0486   -4.6555   20.0324 O   0  0  0  0  0  0  0  0  0  0  0  0
    6.7316   -3.6645   20.2493 C   0  0  0  0  0  0  0  0  0  0  0  0
    7.1205   -2.7276   19.1223 C   0  0  1  0  0  0  0  0  0  0  0  0
    7.1506   -3.3355   21.4893 N   0  0  0  0  0  0  0  0  0  0  0  0
    6.8987   -4.2184   22.6353 C   0  0  1  0  0  0  0  0  0  0  0  0
    6.0867   -3.4984   23.7083 C   0  0  1  0  0  0  0  0  0  0  0  0
    7.8706   -2.1105   21.8652 C   0  0  1  0  0  0  0  0  0  0  0  0
    7.1056   -1.3294   22.9402 C   0  0  1  0  0  0  0  0  0  0  0  0
    6.8257   -2.2284   24.1533 C   0  0  1  0  0  0  0  0  0  0  0  0
    6.0467   -1.4883   25.2043 C   0  0  0  0  0  0  0  0  0  0  0  0
    4.8227   -1.4064   25.1683 O   0  0  0  0  0  0  0  0  0  0  0  0
    6.8078   -0.9293   26.1642 N   0  0  0  0  0  0  0  0  0  0  0  0
    6.3728   -0.1313   27.2452 C   0  0  0  0  0  0  0  0  0  0  0  0
    6.8388    1.1737   27.3812 C   0  0  0  0  0  0  0  0  0  0  0  0
    6.6028    1.9478   28.4481 N   0  0  0  0  0  0  0  0  0  0  0  0
    5.8729    1.4168   29.4232 C   0  0  0  0  0  0  0  0  0  0  0  0
    5.6579    2.0948   30.5712 O   0  0  0  0  0  0  0  0  0  0  0  0
    6.2019    3.4128   30.6911 C   0  0  1  0  0  0  0  0  0  0  0  0
    5.3139    0.1318   29.3813 C   0  0  0  0  0  0  0  0  0  0  0  0
    5.5748   -0.6372   28.2623 C   0  0  0  0  0  0  0  0  0  0  0  0
    6.6991   -3.0969   18.1757 H   0  0  0  0  0  0  0  0  0  0  0  0
    6.7280   -1.7212   19.3303 H   0  0  0  0  0  0  0  0  0  0  0  0
    8.2168   -2.6844   19.0433 H   0  0  0  0  0  0  0  0  0  0  0  0
    6.3402   -5.1022   22.2933 H   0  0  0  0  0  0  0  0  0  0  0  0
    7.8607   -4.5359   23.0639 H   0  0  0  0  0  0  0  0  0  0  0  0
    5.1029   -3.2244   23.2997 H   0  0  0  0  0  0  0  0  0  0  0  0
    5.9519   -4.1647   24.5732 H   0  0  0  0  0  0  0  0  0  0  0  0
    8.8624   -2.3820   22.2557 H   0  0  0  0  0  0  0  0  0  0  0  0
    7.9884   -1.4753   20.9749 H   0  0  0  0  0  0  0  0  0  0  0  0
    7.7081   -0.4662   23.2595 H   0  0  0  0  0  0  0  0  0  0  0  0
    6.1514   -0.9761   22.5223 H   0  0  0  0  0  0  0  0  0  0  0  0
    7.7919   -2.5298   24.5841 H   0  0  0  0  0  0  0  0  0  0  0  0
    7.7917   -1.0982   26.1051 H   0  0  0  0  0  0  0  0  0  0  0  0
    7.4274    1.5876   26.5757 H   0  0  0  0  0  0  0  0  0  0  0  0
    5.9424    3.8290   31.6757 H   0  0  0  0  0  0  0  0  0  0  0  0
    7.2962    3.3684   30.5888 H   0  0  0  0  0  0  0  0  0  0  0  0
    5.7855    4.0546   29.9007 H   0  0  0  0  0  0  0  0  0  0  0  0
    4.7040   -0.2423   30.1903 H   0  0  0  0  0  0  0  0  0  0  0  0
    5.1584   -1.6304   28.1795 H   0  0  0  0  0  0  0  0  0  0  0  0
  1  2  2  0
  2  3  1  0
  2  4  1  0
  3 21  1  6
  3 22  1  0
  3 23  1  0
  4  5  1  0
  4  7  1  0
  5  6  1  0
  5 24  1  6
  5 25  1  0
  6  9  1  0
  6 26  1  6
  6 27  1  0
  7  8  1  0
  7 28  1  1
  7 29  1  0
  8  9  1  0
  8 30  1  1
  8 31  1  0
  9 10  1  0
  9 32  1  1
 10 11  2  0
 10 12  1  0
 12 13  1  0
 12 33  1  0
 13 14  2  0
 13 20  1  0
 14 15  1  0
 14 34  1  0
 15 16  2  0
 16 17  1  0
 16 19  1  0
 17 18  1  0
 18 35  1  1
 18 36  1  0
 18 37  1  0
 19 20  2  0
 19 38  1  0
 20 39  1  0
M  END
$$$$
