LIG(A-305)
     RDKit          3D

 27 28  0  0  1  0  0  0  0  0999 V2000
    9.4458   -5.4557   26.2702 C   0  0  1  0  0  0  0  0  0  0  0  0
    9.2078   -4.0757   25.6402 C   0  0  0  0  0  0  0  0  0  0  0  0
    9.0757   -2.0987   24.1531 C   0  0  0  0  0  0  0  0  0  0  0  0
    9.1447   -1.0918   22.9881 C   0  0  1  0  0  0  0  0  0  0  0  0
   10.6127    0.2733   23.8080 C   0  0  1  0  0  0  0  0  0  0  0  0
   11.9347    1.1733   23.3870 C   0  0  1  0  0  0  0  0  0  0  0  0
   12.9597    0.4203   22.9140 C   0  0  0  0  0  0  0  0  0  0  0  0
   12.6336   -0.8467   22.1290 C   0  0  0  0  0  0  0  0  0  0  0  0
   11.4057   -1.5008   22.4190 C   0  0  1  0  0  0  0  0  0  0  0  0
   13.6196   -1.5688   21.5760 F   0  0  0  0  0  0  0  0  0  0  0  0
    8.6438   -3.0007   26.2952 N   0  0  0  0  0  0  0  0  0  0  0  0
    8.5578   -1.8207   25.4062 N   0  0  0  0  0  0  0  0  0  0  0  0
   10.2687   -0.5238   22.8711 N   0  0  1  0  0  0  0  0  0  0  0  0
    9.5947   -3.6567   24.0981 S   0  0  0  0  0  0  0  0  0  0  0  0
    8.4854   -5.8802   26.5980 H   0  0  0  0  0  0  0  0  0  0  0  0
    9.9072   -6.1231   25.5273 H   0  0  0  0  0  0  0  0  0  0  0  0
   10.1158   -5.3525   27.1365 H   0  0  0  0  0  0  0  0  0  0  0  0
    8.9279   -1.6282   22.0525 H   0  0  0  0  0  0  0  0  0  0  0  0
    8.3804   -0.3180   23.1526 H   0  0  0  0  0  0  0  0  0  0  0  0
   10.8523   -0.3143   24.7065 H   0  0  0  0  0  0  0  0  0  0  0  0
    9.7742    0.9510   24.0261 H   0  0  0  0  0  0  0  0  0  0  0  0
   11.6370    1.8898   22.6072 H   0  0  0  0  0  0  0  0  0  0  0  0
   12.2829    1.7213   24.2749 H   0  0  0  0  0  0  0  0  0  0  0  0
   13.9847    0.7117   23.0894 H   0  0  0  0  0  0  0  0  0  0  0  0
   11.0708   -2.0297   21.5146 H   0  0  0  0  0  0  0  0  0  0  0  0
   11.5807   -2.2280   23.2255 H   0  0  0  0  0  0  0  0  0  0  0  0
   10.1723    0.0628   22.0670 H   0  0  0  0  0  0  0  0  0  0  0  0
  1  2  1  0
  1 15  1  1
  1 16  1  0
  1 17  1  0
  2 11  2  0
  2 14  1  0
  3  4  1  0
  3 12  2  0
  3 14  1  0
  4 13  1  0
  4 18  1  6
  4 19  1  0
  5  6  1  0
  5 13  1  0
  5 20  1  1
  5 21  1  0
  6  7  1  0
  6 22  1  6
  6 23  1  0
  7  8  2  0
  7 24  1  0
  8  9  1  0
  8 10  1  0
  9 13  1  0
  9 25  1  6
  9 26  1  0
 11 12  1  0
 13 27  1  6
M  CHG  1  13   1
M  END
$$$$
