LIG(A-306)
     RDKit          3D

 57 61  0  0  1  0  0  0  0  0999 V2000
   14.0707   -1.5477   21.4150 Cl  0  0  0  0  0  0  0  0  0  0  0  0
   12.8766   -0.7129   22.3719 C   0  0  0  0  0  0  0  0  0  0  0  0
   11.5557   -1.1211   22.3110 C   0  0  0  0  0  0  0  0  0  0  0  0
   13.2744    0.3252   23.1789 C   0  0  0  0  0  0  0  0  0  0  0  0
   12.3394    0.9371   23.9919 C   0  0  0  0  0  0  0  0  0  0  0  0
   11.0034    0.5419   23.9779 C   0  0  0  0  0  0  0  0  0  0  0  0
   10.0593    1.1808   24.9669 C   0  0  1  0  0  0  0  0  0  0  0  0
    8.6713    0.9976   24.5299 N   0  0  0  0  0  0  0  0  0  0  0  0
    7.6082    2.2124   24.7488 S   0  0  2  0  0  0  0  0  0  0  0  0
    8.2120    3.1465   25.6478 O   0  0  0  0  0  0  0  0  0  0  0  0
    6.3562    1.6182   25.1019 O   0  0  0  0  0  0  0  0  0  0  0  0
    7.4451    3.0063   23.1598 C   0  0  1  0  0  0  0  0  0  0  0  0
    6.8038    4.4053   23.1618 C   0  0  2  0  0  0  0  0  0  0  0  0
    5.3878    4.5851   23.5918 C   0  0  1  0  0  0  0  0  0  0  0  0
    5.7808    4.7841   22.1458 C   0  0  1  0  0  0  0  0  0  0  0  0
    7.7027    5.4204   23.6507 O   0  0  0  0  0  0  0  0  0  0  0  0
    8.2586    6.3765   22.7357 C   0  0  1  0  0  0  0  0  0  0  0  0
   10.5966   -0.4722   23.0939 C   0  0  0  0  0  0  0  0  0  0  0  0
    9.1176   -0.7854   22.9109 C   0  0  1  0  0  0  0  0  0  0  0  0
    8.3155   -0.3825   24.1519 C   0  0  1  0  0  0  0  0  0  0  0  0
    8.5655   -0.0565   21.6819 C   0  0  0  0  0  0  0  0  0  0  0  0
    9.1034    0.9525   21.2259 O   0  0  0  0  0  0  0  0  0  0  0  0
    7.4266   -0.5907   21.1629 N   0  0  0  0  0  0  0  0  0  0  0  0
    6.6765   -0.1189   20.0559 C   0  0  0  0  0  0  0  0  0  0  0  0
    5.5034    0.6740   20.2939 C   0  0  0  0  0  0  0  0  0  0  0  0
    4.9594    0.9139   21.5839 C   0  0  0  0  0  0  0  0  0  0  0  0
    3.8672    1.7198   21.7488 C   0  0  0  0  0  0  0  0  0  0  0  0
    3.2602    2.3267   20.6528 C   0  0  0  0  0  0  0  0  0  0  0  0
    3.7322    2.1097   19.3898 C   0  0  0  0  0  0  0  0  0  0  0  0
    4.8583    1.2749   19.1729 C   0  0  0  0  0  0  0  0  0  0  0  0
    5.3964    1.0209   17.8869 C   0  0  0  0  0  0  0  0  0  0  0  0
    6.4645    0.2660   17.6609 N   0  0  0  0  0  0  0  0  0  0  0  0
    7.0765   -0.2768   18.7259 C   0  0  0  0  0  0  0  0  0  0  0  0
   11.2678   -1.9355   21.6628 H   0  0  0  0  0  0  0  0  0  0  0  0
   14.3019    0.6579   23.1780 H   0  0  0  0  0  0  0  0  0  0  0  0
   12.6495    1.7356   24.6496 H   0  0  0  0  0  0  0  0  0  0  0  0
   10.1948    0.7132   25.9533 H   0  0  0  0  0  0  0  0  0  0  0  0
   10.2796    2.2562   25.0374 H   0  0  0  0  0  0  0  0  0  0  0  0
    8.4517    3.0992   22.7261 H   0  0  0  0  0  0  0  0  0  0  0  0
    6.8293    2.3558   22.5213 H   0  0  0  0  0  0  0  0  0  0  0  0
    4.7854    3.7124   23.8842 H   0  0  0  0  0  0  0  0  0  0  0  0
    5.1050    5.4496   24.2102 H   0  0  0  0  0  0  0  0  0  0  0  0
    5.7846    5.7939   21.7095 H   0  0  0  0  0  0  0  0  0  0  0  0
    5.4651    4.0565   21.3835 H   0  0  0  0  0  0  0  0  0  0  0  0
    8.9163    7.0684   23.2822 H   0  0  0  0  0  0  0  0  0  0  0  0
    8.8400    5.8503   21.9642 H   0  0  0  0  0  0  0  0  0  0  0  0
    7.4453    6.9433   22.2590 H   0  0  0  0  0  0  0  0  0  0  0  0
    9.0034   -1.8685   22.7565 H   0  0  0  0  0  0  0  0  0  0  0  0
    8.5534   -1.0644   24.9815 H   0  0  0  0  0  0  0  0  0  0  0  0
    7.2398   -0.4376   23.9290 H   0  0  0  0  0  0  0  0  0  0  0  0
    7.0779   -1.4118   21.6149 H   0  0  0  0  0  0  0  0  0  0  0  0
    5.4153    0.4528   22.4475 H   0  0  0  0  0  0  0  0  0  0  0  0
    3.4714    1.8873   22.7396 H   0  0  0  0  0  0  0  0  0  0  0  0
    2.4090    2.9743   20.8026 H   0  0  0  0  0  0  0  0  0  0  0  0
    3.2435    2.5781   18.5483 H   0  0  0  0  0  0  0  0  0  0  0  0
    4.9059    1.4703   17.0361 H   0  0  0  0  0  0  0  0  0  0  0  0
    7.9492   -0.8852   18.5395 H   0  0  0  0  0  0  0  0  0  0  0  0
  1  2  1  0
  2  3  2  0
  2  4  1  0
  3 18  1  0
  3 34  1  0
  4  5  2  0
  4 35  1  0
  5  6  1  0
  5 36  1  0
  6  7  1  0
  6 18  2  0
  7  8  1  0
  7 37  1  1
  7 38  1  0
  9  8  1  6
  8 20  1  0
  9 10  2  0
  9 11  2  0
  9 12  1  0
 12 13  1  0
 12 39  1  6
 12 40  1  0
 13 14  1  0
 13 15  1  0
 13 16  1  1
 14 15  1  0
 14 41  1  6
 14 42  1  0
 15 43  1  6
 15 44  1  0
 16 17  1  0
 17 45  1  1
 17 46  1  0
 17 47  1  0
 18 19  1  0
 19 20  1  0
 19 21  1  0
 19 48  1  6
 20 49  1  1
 20 50  1  0
 21 22  2  0
 21 23  1  0
 23 24  1  0
 23 51  1  0
 24 25  2  0
 24 33  1  0
 25 26  1  0
 25 30  1  0
 26 27  2  0
 26 52  1  0
 27 28  1  0
 27 53  1  0
 28 29  2  0
 28 54  1  0
 29 30  1  0
 29 55  1  0
 30 31  2  0
 31 32  1  0
 31 56  1  0
 32 33  2  0
 33 57  1  0
M  END
$$$$
