LIG(A-305)
     RDKit          3D

 29 30  0  0  0  0  0  0  0  0999 V2000
    8.7227   -1.4371   23.4005 S   0  0  1  0  0  0  0  0  0  0  0  0
   12.8429    0.4204   23.1219 C   0  0  0  0  0  0  0  0  0  0  0  0
    9.9565   -5.3811   25.2367 N   0  0  0  0  0  0  0  0  0  0  0  0
    8.3839   -3.6088   26.7467 C   0  0  0  0  0  0  0  0  0  0  0  0
   11.2747   -1.2935   22.4662 C   0  0  0  0  0  0  0  0  0  0  0  0
    7.7828   -0.3691   23.2445 O   0  0  0  0  0  0  0  0  0  0  0  0
    7.5631   -2.6657   27.5877 C   0  0  1  0  0  0  0  0  0  0  0  0
   11.8990    0.9416   23.9960 C   0  0  0  0  0  0  0  0  0  0  0  0
    8.7268   -4.8698   27.2248 C   0  0  0  0  0  0  0  0  0  0  0  0
   10.3418   -0.7443   23.3323 C   0  0  0  0  0  0  0  0  0  0  0  0
    8.5099   -1.9770   24.9246 N   0  0  0  0  0  0  0  0  0  0  0  0
    8.6715   -2.5532   22.5076 O   0  0  0  0  0  0  0  0  0  0  0  0
    8.8488   -3.2490   25.4706 C   0  0  0  0  0  0  0  0  0  0  0  0
   10.6470    0.3607   24.1111 C   0  0  0  0  0  0  0  0  0  0  0  0
    9.6336   -4.1701   24.7686 C   0  0  0  0  0  0  0  0  0  0  0  0
   12.5197   -0.6996   22.3830 C   0  0  0  0  0  0  0  0  0  0  0  0
    9.4996   -5.7090   26.4478 C   0  0  0  0  0  0  0  0  0  0  0  0
   13.7265   -1.4098   21.3500 Cl  0  0  0  0  0  0  0  0  0  0  0  0
   13.8135    0.8833   23.0217 H   0  0  0  0  0  0  0  0  0  0  0  0
   11.0346   -2.1628   21.8720 H   0  0  0  0  0  0  0  0  0  0  0  0
    7.3254   -3.1435   28.5496 H   0  0  0  0  0  0  0  0  0  0  0  0
    8.1346   -1.7433   27.7680 H   0  0  0  0  0  0  0  0  0  0  0  0
    6.6297   -2.4213   27.0595 H   0  0  0  0  0  0  0  0  0  0  0  0
   12.1433    1.8084   24.5921 H   0  0  0  0  0  0  0  0  0  0  0  0
    8.3898   -5.1905   28.1994 H   0  0  0  0  0  0  0  0  0  0  0  0
    7.6908   -1.5913   25.3494 H   0  0  0  0  0  0  0  0  0  0  0  0
    9.9181    0.7636   24.7988 H   0  0  0  0  0  0  0  0  0  0  0  0
    9.9998   -3.8873   23.7928 H   0  0  0  0  0  0  0  0  0  0  0  0
    9.7483   -6.6837   26.8407 H   0  0  0  0  0  0  0  0  0  0  0  0
  1  6  2  0
  1 10  1  0
  1 11  1  1
  1 12  2  0
  2  8  2  0
  2 16  1  0
  2 19  1  0
  3 15  1  0
  3 17  2  0
  4  7  1  0
  4  9  2  0
  4 13  1  0
  5 10  1  0
  5 16  2  0
  5 20  1  0
  7 21  1  1
  7 22  1  0
  7 23  1  0
  8 14  1  0
  8 24  1  0
  9 17  1  0
  9 25  1  0
 10 14  2  0
 11 13  1  0
 11 26  1  0
 13 15  2  0
 14 27  1  0
 15 28  1  0
 16 18  1  0
 17 29  1  0
M  END
$$$$
