LIG(A-305)
     RDKit          3D

 28 29  0  0  1  0  0  0  0  0999 V2000
   13.8489   -1.8640   21.3590 Cl  0  0  0  0  0  0  0  0  0  0  0  0
   12.6599   -0.9760   22.2770 C   0  0  0  0  0  0  0  0  0  0  0  0
   13.0640    0.0810   23.0640 C   0  0  0  0  0  0  0  0  0  0  0  0
   12.1070    0.7701   23.7930 C   0  0  0  0  0  0  0  0  0  0  0  0
   10.7680    0.4181   23.6990 C   0  0  0  0  0  0  0  0  0  0  0  0
   11.3329   -1.3479   22.1870 C   0  0  0  0  0  0  0  0  0  0  0  0
   10.3649   -0.6209   22.8730 C   0  0  0  0  0  0  0  0  0  0  0  0
    8.9049   -0.8459   22.5620 C   0  0  1  0  0  0  0  0  0  0  0  0
    8.5109   -0.3359   21.1700 C   0  0  2  0  0  0  0  0  0  0  0  0
    8.8840    1.0451   21.0470 O   0  0  0  0  0  0  0  0  0  0  0  0
    7.0139   -0.5119   20.9420 C   0  0  1  0  0  0  0  0  0  0  0  0
    6.5880   -0.0258   19.6330 N   0  0  0  0  0  0  0  0  0  0  0  0
    5.5370    0.8232   19.5170 N   0  0  0  0  0  0  0  0  0  0  0  0
    5.5120    1.0522   18.2240 C   0  0  0  0  0  0  0  0  0  0  0  0
    6.4630    0.4201   17.5050 N   0  0  0  0  0  0  0  0  0  0  0  0
    7.1090   -0.2519   18.4310 C   0  0  0  0  0  0  0  0  0  0  0  0
   14.1045    0.3665   23.1118 H   0  0  0  0  0  0  0  0  0  0  0  0
   12.4049    1.5844   24.4369 H   0  0  0  0  0  0  0  0  0  0  0  0
   10.0318    0.9589   24.2751 H   0  0  0  0  0  0  0  0  0  0  0  0
   11.0478   -2.1993   21.5868 H   0  0  0  0  0  0  0  0  0  0  0  0
    8.6963   -1.9247   22.6136 H   0  0  0  0  0  0  0  0  0  0  0  0
    8.2996   -0.3189   23.3142 H   0  0  0  0  0  0  0  0  0  0  0  0
    9.0494   -0.9320   20.4185 H   0  0  0  0  0  0  0  0  0  0  0  0
    8.1019    1.5796   20.9742 H   0  0  0  0  0  0  0  0  0  0  0  0
    6.7686   -1.5814   21.0184 H   0  0  0  0  0  0  0  0  0  0  0  0
    6.4707    0.0454   21.7194 H   0  0  0  0  0  0  0  0  0  0  0  0
    4.7802    1.7020   17.7673 H   0  0  0  0  0  0  0  0  0  0  0  0
    7.9508   -0.9012   18.2410 H   0  0  0  0  0  0  0  0  0  0  0  0
  1  2  1  0
  2  3  2  0
  2  6  1  0
  3  4  1  0
  3 17  1  0
  4  5  2  0
  4 18  1  0
  5  7  1  0
  5 19  1  0
  6  7  2  0
  6 20  1  0
  7  8  1  0
  8  9  1  0
  8 21  1  6
  8 22  1  0
  9 10  1  0
  9 11  1  0
  9 23  1  6
 10 24  1  0
 11 12  1  0
 11 25  1  6
 11 26  1  0
 12 13  1  0
 12 16  1  0
 13 14  2  0
 14 15  1  0
 14 27  1  0
 15 16  2  0
 16 28  1  0
M  END
$$$$
