LIG(A-306)
     RDKit          3D

 41 44  0  0  1  0  0  0  0  0999 V2000
   -9.6900    0.7518  -21.2090 O   0  0  0  0  0  0  0  0  0  0  0  0
   -9.2272   -0.2264  -21.7740 C   0  0  0  0  0  0  0  0  0  0  0  0
   -9.9085   -0.8085  -23.0081 C   0  0  2  0  0  0  0  0  0  0  0  0
  -11.4210   -0.6550  -22.9494 C   0  0  0  0  0  0  0  0  0  0  0  0
  -12.0749    0.2724  -23.7522 C   0  0  0  0  0  0  0  0  0  0  0  0
  -13.4412    0.4754  -23.6316 C   0  0  0  0  0  0  0  0  0  0  0  0
  -14.1777   -0.2510  -22.7060 C   0  0  0  0  0  0  0  0  0  0  0  0
  -12.1666   -1.4182  -22.0549 C   0  0  0  0  0  0  0  0  0  0  0  0
  -13.5269   -1.1993  -21.9402 C   0  0  0  0  0  0  0  0  0  0  0  0
  -14.4405   -2.1410  -20.7912 Cl  0  0  0  0  0  0  0  0  0  0  0  0
   -8.0461   -0.7977  -21.3707 N   0  0  0  0  0  0  0  0  0  0  0  0
   -7.5429   -2.1174  -21.7990 C   0  0  1  0  0  0  0  0  0  0  0  0
   -8.0198   -2.4564  -23.1975 C   0  0  1  0  0  0  0  0  0  0  0  0
   -9.5274   -2.2644  -23.2967 C   0  0  1  0  0  0  0  0  0  0  0  0
   -7.3141   -0.2322  -20.2788 C   0  0  0  0  0  0  0  0  0  0  0  0
   -6.2172    0.6558  -20.4773 C   0  0  0  0  0  0  0  0  0  0  0  0
   -5.7381    1.0520  -21.7546 C   0  0  0  0  0  0  0  0  0  0  0  0
   -4.6592    1.8818  -21.8743 C   0  0  0  0  0  0  0  0  0  0  0  0
   -4.0144    2.3723  -20.7445 C   0  0  0  0  0  0  0  0  0  0  0  0
   -4.4454    2.0310  -19.4931 C   0  0  0  0  0  0  0  0  0  0  0  0
   -5.5503    1.1612  -19.3245 C   0  0  0  0  0  0  0  0  0  0  0  0
   -6.0275    0.7519  -18.0512 C   0  0  0  0  0  0  0  0  0  0  0  0
   -7.0512   -0.0762  -17.8716 N   0  0  0  0  0  0  0  0  0  0  0  0
   -7.6660   -0.5469  -18.9674 C   0  0  0  0  0  0  0  0  0  0  0  0
   -9.5631   -0.2165  -23.8685 H   0  0  0  0  0  0  0  0  0  0  0  0
  -11.5125    0.8412  -24.4780 H   0  0  0  0  0  0  0  0  0  0  0  0
  -13.9346    1.2018  -24.2605 H   0  0  0  0  0  0  0  0  0  0  0  0
  -15.2372   -0.0786  -22.5869 H   0  0  0  0  0  0  0  0  0  0  0  0
  -11.6855   -2.1763  -21.4547 H   0  0  0  0  0  0  0  0  0  0  0  0
   -6.4430   -2.1033  -21.7881 H   0  0  0  0  0  0  0  0  0  0  0  0
   -7.9067   -2.8847  -21.0997 H   0  0  0  0  0  0  0  0  0  0  0  0
   -7.5204   -1.7966  -23.9222 H   0  0  0  0  0  0  0  0  0  0  0  0
   -7.7706   -3.5039  -23.4230 H   0  0  0  0  0  0  0  0  0  0  0  0
  -10.0237   -2.9192  -22.5653 H   0  0  0  0  0  0  0  0  0  0  0  0
   -9.8592   -2.5302  -24.3112 H   0  0  0  0  0  0  0  0  0  0  0  0
   -6.2338    0.6921  -22.6441 H   0  0  0  0  0  0  0  0  0  0  0  0
   -4.3041    2.1592  -22.8558 H   0  0  0  0  0  0  0  0  0  0  0  0
   -3.1646    3.0294  -20.8568 H   0  0  0  0  0  0  0  0  0  0  0  0
   -3.9392    2.4280  -18.6256 H   0  0  0  0  0  0  0  0  0  0  0  0
   -5.5277    1.1374  -17.1749 H   0  0  0  0  0  0  0  0  0  0  0  0
   -8.4970   -1.2212  -18.8221 H   0  0  0  0  0  0  0  0  0  0  0  0
  1  2  2  0
  2  3  1  0
  2 11  1  0
  3  4  1  0
  3 14  1  0
  3 25  1  6
  4  5  2  0
  4  8  1  0
  5  6  1  0
  5 26  1  0
  6  7  2  0
  6 27  1  0
  7  9  1  0
  7 28  1  0
  8  9  2  0
  8 29  1  0
  9 10  1  0
 11 12  1  0
 11 15  1  0
 12 13  1  0
 12 30  1  6
 12 31  1  0
 13 14  1  0
 13 32  1  6
 13 33  1  0
 14 34  1  1
 14 35  1  0
 15 16  2  0
 15 24  1  0
 16 17  1  0
 16 21  1  0
 17 18  2  0
 17 36  1  0
 18 19  1  0
 18 37  1  0
 19 20  2  0
 19 38  1  0
 20 21  1  0
 20 39  1  0
 21 22  2  0
 22 23  1  0
 22 40  1  0
 23 24  2  0
 24 41  1  0
M  END
$$$$
