LIG(A-306)
     RDKit          3D

 34 36  0  0  0  0  0  0  0  0999 V2000
    9.3004    0.9317   21.1035 O   0  0  0  0  0  0  0  0  0  0  0  0
    8.7776   -0.1114   21.5075 C   0  0  0  0  0  0  0  0  0  0  0  0
    9.4449   -0.9923   22.5444 C   0  0  1  0  0  0  0  0  0  0  0  0
   10.8889   -0.6360   22.8083 C   0  0  0  0  0  0  0  0  0  0  0  0
   11.2287    0.4161   23.6383 C   0  0  0  0  0  0  0  0  0  0  0  0
   10.2266    1.0919   24.2464 F   0  0  0  0  0  0  0  0  0  0  0  0
   12.5247    0.8374   23.8332 C   0  0  0  0  0  0  0  0  0  0  0  0
   13.5407    0.2006   23.1451 C   0  0  0  0  0  0  0  0  0  0  0  0
   11.9190   -1.2697   22.1172 C   0  0  0  0  0  0  0  0  0  0  0  0
   13.2069   -0.8205   22.2911 C   0  0  0  0  0  0  0  0  0  0  0  0
   14.1839   -1.3612   21.5120 F   0  0  0  0  0  0  0  0  0  0  0  0
    7.5877   -0.5716   21.0626 N   0  0  0  0  0  0  0  0  0  0  0  0
    6.7995   -0.0398   20.0217 C   0  0  0  0  0  0  0  0  0  0  0  0
    5.6673    0.7660   20.3608 C   0  0  0  0  0  0  0  0  0  0  0  0
    5.2484    1.0209   21.6919 C   0  0  0  0  0  0  0  0  0  0  0  0
    4.1783    1.8336   21.9470 C   0  0  0  0  0  0  0  0  0  0  0  0
    3.4790    2.4295   20.9091 C   0  0  0  0  0  0  0  0  0  0  0  0
    3.8420    2.2146   19.6110 C   0  0  0  0  0  0  0  0  0  0  0  0
    4.9411    1.3758   19.2999 C   0  0  0  0  0  0  0  0  0  0  0  0
    5.3830    1.1370   17.9739 C   0  0  0  0  0  0  0  0  0  0  0  0
    6.4322    0.3872   17.6617 N   0  0  0  0  0  0  0  0  0  0  0  0
    7.1094   -0.1807   18.6697 C   0  0  0  0  0  0  0  0  0  0  0  0
    8.8871   -0.9008   23.4881 H   0  0  0  0  0  0  0  0  0  0  0  0
    9.4032   -2.0339   22.1933 H   0  0  0  0  0  0  0  0  0  0  0  0
   12.7435    1.6496   24.5105 H   0  0  0  0  0  0  0  0  0  0  0  0
   14.5704    0.4989   23.2762 H   0  0  0  0  0  0  0  0  0  0  0  0
   11.7100   -2.0986   21.4571 H   0  0  0  0  0  0  0  0  0  0  0  0
    7.2250   -1.3813   21.5240 H   0  0  0  0  0  0  0  0  0  0  0  0
    5.7813    0.5673   22.5145 H   0  0  0  0  0  0  0  0  0  0  0  0
    3.8749    2.0129   22.9679 H   0  0  0  0  0  0  0  0  0  0  0  0
    2.6383    3.0705   21.1298 H   0  0  0  0  0  0  0  0  0  0  0  0
    3.2870    2.6876   18.8144 H   0  0  0  0  0  0  0  0  0  0  0  0
    4.8305    1.5945   17.1666 H   0  0  0  0  0  0  0  0  0  0  0  0
    7.9606   -0.7946   18.4148 H   0  0  0  0  0  0  0  0  0  0  0  0
  1  2  2  0
  2  3  1  0
  2 12  1  0
  3  4  1  0
  3 23  1  1
  3 24  1  0
  4  5  2  0
  4  9  1  0
  5  6  1  0
  5  7  1  0
  7  8  2  0
  7 25  1  0
  8 10  1  0
  8 26  1  0
  9 10  2  0
  9 27  1  0
 10 11  1  0
 12 13  1  0
 12 28  1  0
 13 14  2  0
 13 22  1  0
 14 15  1  0
 14 19  1  0
 15 16  2  0
 15 29  1  0
 16 17  1  0
 16 30  1  0
 17 18  2  0
 17 31  1  0
 18 19  1  0
 18 32  1  0
 19 20  2  0
 20 21  1  0
 20 33  1  0
 21 22  2  0
 22 34  1  0
M  END
$$$$
