LIG(A-305)
     RDKit          3D

 52 55  0  0  0  0  0  0  0  0999 V2000
    9.0703    1.5971   21.2042 O   0  0  0  0  0  0  0  0  0  0  0  0
    8.9702    0.5111   21.7522 C   0  0  0  0  0  0  0  0  0  0  0  0
    8.3281   -0.6698   21.0262 C   0  0  1  0  0  0  0  0  0  0  0  0
    7.4450   -0.2077   19.9783 N   0  0  0  0  0  0  0  0  0  0  0  0
    6.2661    0.4634   20.0784 C   0  0  0  0  0  0  0  0  0  0  0  0
    5.4482    0.8095   21.1454 C   0  0  0  0  0  0  0  0  0  0  0  0
    4.3163    1.5656   20.8675 C   0  0  0  0  0  0  0  0  0  0  0  0
    4.0112    1.9486   19.5646 C   0  0  0  0  0  0  0  0  0  0  0  0
    4.8351    1.5936   18.5035 C   0  0  0  0  0  0  0  0  0  0  0  0
    5.9741    0.8394   18.7714 C   0  0  0  0  0  0  0  0  0  0  0  0
    6.9689    0.3683   17.9463 N   0  0  0  0  0  0  0  0  0  0  0  0
    7.8389   -0.2668   18.6803 N   0  0  0  0  0  0  0  0  0  0  0  0
    9.3873    0.2960   23.0332 N   0  0  0  0  0  0  0  0  0  0  0  0
    9.3412   -0.9690   23.6851 C   0  0  0  0  0  0  0  0  0  0  0  0
    8.4673   -1.1749   24.7442 C   0  0  0  0  0  0  0  0  0  0  0  0
    8.3772   -2.4169   25.3442 C   0  0  0  0  0  0  0  0  0  0  0  0
   10.1341   -2.0180   23.2381 C   0  0  0  0  0  0  0  0  0  0  0  0
   10.0290   -3.2660   23.8201 C   0  0  0  0  0  0  0  0  0  0  0  0
    9.1520   -3.4910   24.8881 C   0  0  0  0  0  0  0  0  0  0  0  0
    9.0430   -4.7370   25.4621 N   0  0  0  0  0  0  0  0  0  0  0  0
   10.1359   -5.6861   25.3780 C   0  0  1  0  0  0  0  0  0  0  0  0
    8.1220   -4.9889   26.5632 C   0  0  1  0  0  0  0  0  0  0  0  0
    9.9015    1.4320   23.8061 C   0  0  1  0  0  0  0  0  0  0  0  0
   11.3215    1.7978   23.4490 C   0  0  0  0  0  0  0  0  0  0  0  0
   11.5945    2.9348   22.6970 C   0  0  0  0  0  0  0  0  0  0  0  0
   12.8895    3.2257   22.2999 C   0  0  0  0  0  0  0  0  0  0  0  0
   13.9275    2.3826   22.6449 C   0  0  0  0  0  0  0  0  0  0  0  0
   13.6734    1.2576   23.4089 C   0  0  0  0  0  0  0  0  0  0  0  0
   12.3784    0.9707   23.8130 C   0  0  0  0  0  0  0  0  0  0  0  0
    9.1181   -1.2941   20.5834 H   0  0  0  0  0  0  0  0  0  0  0  0
    7.7506   -1.2664   21.7479 H   0  0  0  0  0  0  0  0  0  0  0  0
    5.6831    0.5024   22.1539 H   0  0  0  0  0  0  0  0  0  0  0  0
    3.6628    1.8607   21.6752 H   0  0  0  0  0  0  0  0  0  0  0  0
    3.1211    2.5303   19.3755 H   0  0  0  0  0  0  0  0  0  0  0  0
    4.5973    1.8957   17.4942 H   0  0  0  0  0  0  0  0  0  0  0  0
    7.8546   -0.3602   25.1012 H   0  0  0  0  0  0  0  0  0  0  0  0
    7.7014   -2.5608   26.1743 H   0  0  0  0  0  0  0  0  0  0  0  0
   10.8352   -1.8573   22.4325 H   0  0  0  0  0  0  0  0  0  0  0  0
   10.6319   -4.0802   23.4459 H   0  0  0  0  0  0  0  0  0  0  0  0
    9.8553   -6.6159   25.8946 H   0  0  0  0  0  0  0  0  0  0  0  0
   10.3513   -5.9044   24.3216 H   0  0  0  0  0  0  0  0  0  0  0  0
   11.0305   -5.2580   25.8539 H   0  0  0  0  0  0  0  0  0  0  0  0
    8.1943   -6.0432   26.8685 H   0  0  0  0  0  0  0  0  0  0  0  0
    8.3824   -4.3422   27.4141 H   0  0  0  0  0  0  0  0  0  0  0  0
    7.0939   -4.7711   26.2383 H   0  0  0  0  0  0  0  0  0  0  0  0
    9.2575    2.3036   23.6176 H   0  0  0  0  0  0  0  0  0  0  0  0
    9.8649    1.1734   24.8746 H   0  0  0  0  0  0  0  0  0  0  0  0
   10.7888    3.5982   22.4195 H   0  0  0  0  0  0  0  0  0  0  0  0
   13.0879    4.1143   21.7190 H   0  0  0  0  0  0  0  0  0  0  0  0
   14.9339    2.6007   22.3194 H   0  0  0  0  0  0  0  0  0  0  0  0
   14.4843    0.6023   23.6908 H   0  0  0  0  0  0  0  0  0  0  0  0
   12.1887    0.0956   24.4168 H   0  0  0  0  0  0  0  0  0  0  0  0
  1  2  2  0
  2  3  1  0
  2 13  1  0
  3  4  1  0
  3 30  1  6
  3 31  1  0
  4  5  1  0
  4 12  1  0
  5  6  2  0
  5 10  1  0
  6  7  1  0
  6 32  1  0
  7  8  2  0
  7 33  1  0
  8  9  1  0
  8 34  1  0
  9 10  2  0
  9 35  1  0
 10 11  1  0
 11 12  2  0
 13 14  1  0
 13 23  1  0
 14 15  2  0
 14 17  1  0
 15 16  1  0
 15 36  1  0
 16 19  2  0
 16 37  1  0
 17 18  2  0
 17 38  1  0
 18 19  1  0
 18 39  1  0
 19 20  1  0
 20 21  1  0
 20 22  1  0
 21 40  1  1
 21 41  1  0
 21 42  1  0
 22 43  1  1
 22 44  1  0
 22 45  1  0
 23 24  1  0
 23 46  1  1
 23 47  1  0
 24 25  2  0
 24 29  1  0
 25 26  1  0
 25 48  1  0
 26 27  2  0
 26 49  1  0
 27 28  1  0
 27 50  1  0
 28 29  2  0
 28 51  1  0
 29 52  1  0
M  END
$$$$
