LIG(A-306)
     RDKit          3D

 54 58  0  0  1  0  0  0  0  0999 V2000
    8.2894    6.7796   22.5316 N   0  0  0  0  0  0  0  0  0  0  0  0
    7.7015    5.8065   22.6076 C   0  0  0  0  0  0  0  0  0  0  0  0
    6.9977    4.5234   22.6945 C   0  0  2  0  0  0  0  0  0  0  0  0
    5.7887    4.3562   21.7976 C   0  0  1  0  0  0  0  0  0  0  0  0
    5.5907    4.5522   23.2536 C   0  0  2  0  0  0  0  0  0  0  0  0
    7.9679    3.3765   22.9625 C   0  0  1  0  0  0  0  0  0  0  0  0
    8.2511    2.8075   24.6294 S   0  0  2  0  0  0  0  0  0  0  0  0
    7.0182    2.3223   25.1645 O   0  0  0  0  0  0  0  0  0  0  0  0
    8.9590    3.8306   25.3314 O   0  0  0  0  0  0  0  0  0  0  0  0
    9.2523    1.5317   24.5003 N   0  0  0  0  0  0  0  0  0  0  0  0
    8.8215    0.1286   24.3583 C   0  0  1  0  0  0  0  0  0  0  0  0
   10.6783    1.7129   24.7953 C   0  0  1  0  0  0  0  0  0  0  0  0
   11.5143    0.8901   23.8432 C   0  0  0  0  0  0  0  0  0  0  0  0
   10.9895   -0.2030   23.1312 C   0  0  0  0  0  0  0  0  0  0  0  0
   11.8446   -0.9818   22.3471 C   0  0  0  0  0  0  0  0  0  0  0  0
   13.1805   -0.6366   22.2421 C   0  0  0  0  0  0  0  0  0  0  0  0
   14.2296   -1.5954   21.2360 Cl  0  0  0  0  0  0  0  0  0  0  0  0
   13.6954    0.4574   22.8941 C   0  0  0  0  0  0  0  0  0  0  0  0
   12.8633    1.2093   23.7001 C   0  0  0  0  0  0  0  0  0  0  0  0
    9.4925   -0.4682   23.1192 C   0  0  2  0  0  0  0  0  0  0  0  0
    8.8674    0.1517   21.8673 C   0  0  0  0  0  0  0  0  0  0  0  0
    9.3532    1.1398   21.3213 O   0  0  0  0  0  0  0  0  0  0  0  0
    7.7314   -0.4564   21.4343 N   0  0  0  0  0  0  0  0  0  0  0  0
    6.9903   -0.0705   20.2814 C   0  0  0  0  0  0  0  0  0  0  0  0
    7.5133   -0.2944   19.0083 C   0  0  0  0  0  0  0  0  0  0  0  0
    6.9492    0.1546   17.8774 N   0  0  0  0  0  0  0  0  0  0  0  0
    5.8151    0.8564   17.9795 C   0  0  0  0  0  0  0  0  0  0  0  0
    5.7832    0.6413   20.3584 C   0  0  0  0  0  0  0  0  0  0  0  0
    4.9732    0.9971   21.4025 N   0  0  0  0  0  0  0  0  0  0  0  0
    5.1153    0.7351   22.8285 C   0  0  1  0  0  0  0  0  0  0  0  0
    5.1661    1.1392   19.1875 C   0  0  0  0  0  0  0  0  0  0  0  0
    3.9980    1.7890   19.6596 C   0  0  0  0  0  0  0  0  0  0  0  0
    3.8841    1.6970   20.9676 N   0  0  0  0  0  0  0  0  0  0  0  0
    5.5131    5.1560   21.0944 H   0  0  0  0  0  0  0  0  0  0  0  0
    5.5751    3.3780   21.3422 H   0  0  0  0  0  0  0  0  0  0  0  0
    5.1686    5.4968   23.6271 H   0  0  0  0  0  0  0  0  0  0  0  0
    5.2307    3.7188   23.8748 H   0  0  0  0  0  0  0  0  0  0  0  0
    7.5999    2.5114   22.3914 H   0  0  0  0  0  0  0  0  0  0  0  0
    8.9447    3.6896   22.5651 H   0  0  0  0  0  0  0  0  0  0  0  0
    9.1183   -0.4418   25.2507 H   0  0  0  0  0  0  0  0  0  0  0  0
    7.7283    0.0870   24.2433 H   0  0  0  0  0  0  0  0  0  0  0  0
   10.9405    2.7754   24.6845 H   0  0  0  0  0  0  0  0  0  0  0  0
   10.8800    1.3912   25.8276 H   0  0  0  0  0  0  0  0  0  0  0  0
   11.4650   -1.8483   21.8260 H   0  0  0  0  0  0  0  0  0  0  0  0
   14.7351    0.7256   22.7780 H   0  0  0  0  0  0  0  0  0  0  0  0
   13.2655    2.0604   24.2295 H   0  0  0  0  0  0  0  0  0  0  0  0
    9.3189   -1.5544   23.1060 H   0  0  0  0  0  0  0  0  0  0  0  0
    7.3909   -1.2326   21.9650 H   0  0  0  0  0  0  0  0  0  0  0  0
    8.4277   -0.8635   18.9282 H   0  0  0  0  0  0  0  0  0  0  0  0
    5.3701    1.2300   17.0690 H   0  0  0  0  0  0  0  0  0  0  0  0
    6.0528    1.1810   23.1921 H   0  0  0  0  0  0  0  0  0  0  0  0
    4.2654    1.1772   23.3689 H   0  0  0  0  0  0  0  0  0  0  0  0
    5.1348   -0.3510   23.0014 H   0  0  0  0  0  0  0  0  0  0  0  0
    3.2884    2.2975   19.0237 H   0  0  0  0  0  0  0  0  0  0  0  0
  1  2  3  0
  3  2  1  6
  3  4  1  0
  3  5  1  0
  3  6  1  0
  4  5  1  0
  4 34  1  6
  4 35  1  0
  5 36  1  6
  5 37  1  0
  6  7  1  0
  6 38  1  6
  6 39  1  0
  7  8  2  0
  7  9  2  0
  7 10  1  6
 10 11  1  0
 10 12  1  0
 11 20  1  0
 11 40  1  1
 11 41  1  0
 12 13  1  0
 12 42  1  1
 12 43  1  0
 13 14  2  0
 13 19  1  0
 14 15  1  0
 14 20  1  0
 15 16  2  0
 15 44  1  0
 16 17  1  0
 16 18  1  0
 18 19  2  0
 18 45  1  0
 19 46  1  0
 20 21  1  0
 20 47  1  6
 21 22  2  0
 21 23  1  0
 23 24  1  0
 23 48  1  0
 24 25  2  0
 24 28  1  0
 25 26  1  0
 25 49  1  0
 26 27  2  0
 27 31  1  0
 27 50  1  0
 28 29  1  0
 28 31  2  0
 29 30  1  0
 29 33  1  0
 30 51  1  1
 30 52  1  0
 30 53  1  0
 31 32  1  0
 32 33  2  0
 32 54  1  0
M  END
$$$$
