LIG(A-306)
     RDKit          3D

 38 41  0  0  1  0  0  0  0  0999 V2000
   -9.7220    0.9898  -21.2296 O   0  0  0  0  0  0  0  0  0  0  0  0
   -9.2471   -0.0529  -21.6539 C   0  0  0  0  0  0  0  0  0  0  0  0
   -9.7368   -0.8637  -22.8480 C   0  0  2  0  0  0  0  0  0  0  0  0
  -11.2468   -0.7834  -23.0046 C   0  0  0  0  0  0  0  0  0  0  0  0
  -11.8220    0.0732  -23.9379 C   0  0  0  0  0  0  0  0  0  0  0  0
  -13.1998    0.2008  -24.0255 C   0  0  0  0  0  0  0  0  0  0  0  0
  -14.0244   -0.5171  -23.1718 C   0  0  0  0  0  0  0  0  0  0  0  0
  -12.0754   -1.5272  -22.1719 C   0  0  0  0  0  0  0  0  0  0  0  0
  -13.4442   -1.3626  -22.2475 C   0  0  0  0  0  0  0  0  0  0  0  0
  -14.4555   -2.1692  -21.0798 Cl  0  0  0  0  0  0  0  0  0  0  0  0
   -8.1680   -0.7114  -21.1256 N   0  0  0  0  0  0  0  0  0  0  0  0
   -7.9030   -2.0008  -21.7844 C   0  0  1  0  0  0  0  0  0  0  0  0
   -9.2058   -2.2771  -22.5225 C   0  0  1  0  0  0  0  0  0  0  0  0
   -7.3493   -0.2260  -20.0581 C   0  0  0  0  0  0  0  0  0  0  0  0
   -6.2326    0.6192  -20.3218 C   0  0  0  0  0  0  0  0  0  0  0  0
   -5.7936    0.9736  -21.6252 C   0  0  0  0  0  0  0  0  0  0  0  0
   -4.7487    1.8366  -21.8057 C   0  0  0  0  0  0  0  0  0  0  0  0
   -4.0898    2.3903  -20.7147 C   0  0  0  0  0  0  0  0  0  0  0  0
   -4.4688    2.0749  -19.4413 C   0  0  0  0  0  0  0  0  0  0  0  0
   -5.5446    1.1817  -19.2078 C   0  0  0  0  0  0  0  0  0  0  0  0
   -5.9997    0.8374  -17.9084 C   0  0  0  0  0  0  0  0  0  0  0  0
   -7.0293    0.0351  -17.6686 N   0  0  0  0  0  0  0  0  0  0  0  0
   -7.6780   -0.4747  -18.7275 C   0  0  0  0  0  0  0  0  0  0  0  0
   -9.2518   -0.4967  -23.7645 H   0  0  0  0  0  0  0  0  0  0  0  0
  -11.1890    0.6444  -24.6007 H   0  0  0  0  0  0  0  0  0  0  0  0
  -13.6329    0.8620  -24.7615 H   0  0  0  0  0  0  0  0  0  0  0  0
  -15.0982   -0.4166  -23.2289 H   0  0  0  0  0  0  0  0  0  0  0  0
  -11.6509   -2.2298  -21.4701 H   0  0  0  0  0  0  0  0  0  0  0  0
   -7.0594   -1.9212  -22.4859 H   0  0  0  0  0  0  0  0  0  0  0  0
   -7.6922   -2.7874  -21.0450 H   0  0  0  0  0  0  0  0  0  0  0  0
   -9.9125   -2.8258  -21.8826 H   0  0  0  0  0  0  0  0  0  0  0  0
   -9.0230   -2.8509  -23.4431 H   0  0  0  0  0  0  0  0  0  0  0  0
   -6.2926    0.5549  -22.4866 H   0  0  0  0  0  0  0  0  0  0  0  0
   -4.4322    2.0907  -22.8065 H   0  0  0  0  0  0  0  0  0  0  0  0
   -3.2710    3.0759  -20.8754 H   0  0  0  0  0  0  0  0  0  0  0  0
   -3.9437    2.5101  -18.6038 H   0  0  0  0  0  0  0  0  0  0  0  0
   -5.4751    1.2544  -17.0615 H   0  0  0  0  0  0  0  0  0  0  0  0
   -8.5172   -1.1261  -18.5333 H   0  0  0  0  0  0  0  0  0  0  0  0
  1  2  2  0
  2  3  1  0
  2 11  1  0
  3  4  1  0
  3 13  1  0
  3 24  1  6
  4  5  2  0
  4  8  1  0
  5  6  1  0
  5 25  1  0
  6  7  2  0
  6 26  1  0
  7  9  1  0
  7 27  1  0
  8  9  2  0
  8 28  1  0
  9 10  1  0
 11 12  1  0
 11 14  1  0
 12 13  1  0
 12 29  1  6
 12 30  1  0
 13 31  1  1
 13 32  1  0
 14 15  2  0
 14 23  1  0
 15 16  1  0
 15 20  1  0
 16 17  2  0
 16 33  1  0
 17 18  1  0
 17 34  1  0
 18 19  2  0
 18 35  1  0
 19 20  1  0
 19 36  1  0
 20 21  2  0
 21 22  1  0
 21 37  1  0
 22 23  2  0
 23 38  1  0
M  END
$$$$
