LIG(A-306)
     RDKit          3D

 43 46  0  0  1  0  0  0  0  0999 V2000
    9.3159    1.1363   21.0274 O   0  0  0  0  0  0  0  0  0  0  0  0
    8.8345    0.1447   21.5591 C   0  0  0  0  0  0  0  0  0  0  0  0
    9.4571   -0.3908   22.9056 C   0  0  1  0  0  0  0  0  0  0  0  0
   10.9711   -0.3677   22.9541 C   0  0  0  0  0  0  0  0  0  0  0  0
   11.7356   -1.0540   22.0125 C   0  0  0  0  0  0  0  0  0  0  0  0
   13.1064   -0.9682   22.0756 C   0  0  0  0  0  0  0  0  0  0  0  0
   13.8296   -1.5480   21.0843 F   0  0  0  0  0  0  0  0  0  0  0  0
   13.7859   -0.2670   23.0388 C   0  0  0  0  0  0  0  0  0  0  0  0
   13.0274    0.4201   23.9464 C   0  0  0  0  0  0  0  0  0  0  0  0
   13.6418    1.1332   24.9156 F   0  0  0  0  0  0  0  0  0  0  0  0
   11.6434    0.4005   23.9279 C   0  0  0  0  0  0  0  0  0  0  0  0
   10.9947    1.1582   24.8680 O   0  0  0  0  0  0  0  0  0  0  0  0
    9.6558    0.7327   25.1471 C   0  0  1  0  0  0  0  0  0  0  0  0
    8.8468    0.6381   23.8729 C   0  0  2  0  0  0  0  0  0  0  0  0
    8.8783   -1.6100   23.4009 O   0  0  0  0  0  0  0  0  0  0  0  0
    9.3323   -2.8427   22.8300 C   0  0  1  0  0  0  0  0  0  0  0  0
    7.7209   -0.4692   21.1004 N   0  0  0  0  0  0  0  0  0  0  0  0
    6.9226   -0.0364   20.0217 C   0  0  0  0  0  0  0  0  0  0  0  0
    5.7677    0.7536   20.3087 C   0  0  0  0  0  0  0  0  0  0  0  0
    5.3112    1.0392   21.6229 C   0  0  0  0  0  0  0  0  0  0  0  0
    4.2163    1.8299   21.8319 C   0  0  0  0  0  0  0  0  0  0  0  0
    3.5247    2.3770   20.7593 C   0  0  0  0  0  0  0  0  0  0  0  0
    3.9200    2.1284   19.4759 C   0  0  0  0  0  0  0  0  0  0  0  0
    5.0460    1.3075   19.2141 C   0  0  0  0  0  0  0  0  0  0  0  0
    5.5094    1.0209   17.9069 C   0  0  0  0  0  0  0  0  0  0  0  0
    6.5732    0.2788   17.6396 N   0  0  0  0  0  0  0  0  0  0  0  0
    7.2478   -0.2326   18.6789 C   0  0  0  0  0  0  0  0  0  0  0  0
   11.2583   -1.6447   21.2445 H   0  0  0  0  0  0  0  0  0  0  0  0
   14.8651   -0.2578   23.0787 H   0  0  0  0  0  0  0  0  0  0  0  0
    9.6845   -0.2550   25.6304 H   0  0  0  0  0  0  0  0  0  0  0  0
    9.1803    1.4582   25.8235 H   0  0  0  0  0  0  0  0  0  0  0  0
    7.8196    0.3329   24.1211 H   0  0  0  0  0  0  0  0  0  0  0  0
    8.8286    1.6237   23.3847 H   0  0  0  0  0  0  0  0  0  0  0  0
    8.8045   -3.6833   23.3041 H   0  0  0  0  0  0  0  0  0  0  0  0
    9.1269   -2.8437   21.7493 H   0  0  0  0  0  0  0  0  0  0  0  0
   10.4143   -2.9477   22.9978 H   0  0  0  0  0  0  0  0  0  0  0  0
    7.4376   -1.3062   21.5686 H   0  0  0  0  0  0  0  0  0  0  0  0
    5.8376    0.6252   22.4703 H   0  0  0  0  0  0  0  0  0  0  0  0
    3.8860    2.0310   22.8402 H   0  0  0  0  0  0  0  0  0  0  0  0
    2.6655    3.0054   20.9418 H   0  0  0  0  0  0  0  0  0  0  0  0
    3.3701    2.5610   18.6531 H   0  0  0  0  0  0  0  0  0  0  0  0
    4.9598    1.4343   17.0742 H   0  0  0  0  0  0  0  0  0  0  0  0
    8.1104   -0.8443   18.4599 H   0  0  0  0  0  0  0  0  0  0  0  0
  1  2  2  0
  2  3  1  0
  2 17  1  0
  3  4  1  0
  3 14  1  0
  3 15  1  1
  4  5  2  0
  4 11  1  0
  5  6  1  0
  5 28  1  0
  6  7  1  0
  6  8  2  0
  8  9  1  0
  8 29  1  0
  9 10  1  0
  9 11  2  0
 11 12  1  0
 12 13  1  0
 13 14  1  0
 13 30  1  1
 13 31  1  0
 14 32  1  1
 14 33  1  0
 15 16  1  0
 16 34  1  1
 16 35  1  0
 16 36  1  0
 17 18  1  0
 17 37  1  0
 18 19  2  0
 18 27  1  0
 19 20  1  0
 19 24  1  0
 20 21  2  0
 20 38  1  0
 21 22  1  0
 21 39  1  0
 22 23  2  0
 22 40  1  0
 23 24  1  0
 23 41  1  0
 24 25  2  0
 25 26  1  0
 25 42  1  0
 26 27  2  0
 27 43  1  0
M  END
$$$$
