LIG(A-306)
     RDKit          3D

 54 57  0  0  0  0  0  0  0  0999 V2000
    8.6679    0.9001   21.3187 O   0  0  0  0  0  0  0  0  0  0  0  0
    8.1962   -0.2231   21.4748 C   0  0  0  0  0  0  0  0  0  0  0  0
    8.7695   -1.1959   22.4848 C   0  0  1  0  0  0  0  0  0  0  0  0
   10.1734   -0.7965   22.8727 C   0  0  0  0  0  0  0  0  0  0  0  0
   10.4001    0.2316   23.7817 C   0  0  0  0  0  0  0  0  0  0  0  0
   11.6870    0.6649   24.0597 C   0  0  0  0  0  0  0  0  0  0  0  0
   12.7722    0.0752   23.4307 C   0  0  0  0  0  0  0  0  0  0  0  0
   11.2656   -1.4022   22.2607 C   0  0  0  0  0  0  0  0  0  0  0  0
   12.5404   -0.9489   22.5357 C   0  0  0  0  0  0  0  0  0  0  0  0
   13.8826   -1.6505   21.6807 Cl  0  0  0  0  0  0  0  0  0  0  0  0
    7.1473   -0.6884   20.7698 N   0  0  0  0  0  0  0  0  0  0  0  0
    6.4312   -0.0206   19.7628 C   0  0  0  0  0  0  0  0  0  0  0  0
    5.4449    0.9362   20.1548 C   0  0  0  0  0  0  0  0  0  0  0  0
    4.8267    1.7180   19.1388 C   0  0  0  0  0  0  0  0  0  0  0  0
    5.2197    1.4731   17.7978 C   0  0  0  0  0  0  0  0  0  0  0  0
    6.1230    0.5683   17.4348 N   0  0  0  0  0  0  0  0  0  0  0  0
    6.7022   -0.1515   18.4038 C   0  0  0  0  0  0  0  0  0  0  0  0
    5.0259    1.1291   21.4958 C   0  0  0  0  0  0  0  0  0  0  0  0
    4.0516    2.0298   21.8058 C   0  0  0  0  0  0  0  0  0  0  0  0
    3.4464    2.7827   20.8088 C   0  0  0  0  0  0  0  0  0  0  0  0
    3.8284    2.6567   19.4958 C   0  0  0  0  0  0  0  0  0  0  0  0
    2.4062    3.5474   21.2818 O   0  0  0  0  0  0  0  0  0  0  0  0
    1.8989    4.6132   20.4608 C   0  0  1  0  0  0  0  0  0  0  0  0
    1.4696    5.7431   21.3677 C   0  0  1  0  0  0  0  0  0  0  0  0
    2.5086    6.0974   22.3427 N   0  0  1  0  0  0  0  0  0  0  0  0
    2.8702    7.5145   22.4467 C   0  0  1  0  0  0  0  0  0  0  0  0
    3.8122    7.5598   23.6357 C   0  0  1  0  0  0  0  0  0  0  0  0
    3.3895    6.3777   24.5097 C   0  0  1  0  0  0  0  0  0  0  0  0
    2.2747    5.6884   23.7337 C   0  0  2  0  0  0  0  0  0  0  0  0
    8.1341   -1.2004   23.3827 H   0  0  0  0  0  0  0  0  0  0  0  0
    8.7894   -2.2037   22.0445 H   0  0  0  0  0  0  0  0  0  0  0  0
    9.5620    0.6986   24.2776 H   0  0  0  0  0  0  0  0  0  0  0  0
   11.8446    1.4644   24.7685 H   0  0  0  0  0  0  0  0  0  0  0  0
   13.7780    0.4103   23.6368 H   0  0  0  0  0  0  0  0  0  0  0  0
   11.1173   -2.2227   21.5743 H   0  0  0  0  0  0  0  0  0  0  0  0
    6.8435   -1.6157   20.9883 H   0  0  0  0  0  0  0  0  0  0  0  0
    4.7541    2.0607   17.0205 H   0  0  0  0  0  0  0  0  0  0  0  0
    7.4343   -0.8887   18.1090 H   0  0  0  0  0  0  0  0  0  0  0  0
    5.4865    0.5525   22.2843 H   0  0  0  0  0  0  0  0  0  0  0  0
    3.7482    2.1590   22.8342 H   0  0  0  0  0  0  0  0  0  0  0  0
    3.3685    3.2724   18.7370 H   0  0  0  0  0  0  0  0  0  0  0  0
    2.6858    4.9632   19.7764 H   0  0  0  0  0  0  0  0  0  0  0  0
    1.0376    4.2563   19.8771 H   0  0  0  0  0  0  0  0  0  0  0  0
    1.2462    6.6266   20.7515 H   0  0  0  0  0  0  0  0  0  0  0  0
    0.5637    5.4364   21.9111 H   0  0  0  0  0  0  0  0  0  0  0  0
    3.3373    5.6207   22.0497 H   0  0  0  0  0  0  0  0  0  0  0  0
    3.3760    7.8583   21.5324 H   0  0  0  0  0  0  0  0  0  0  0  0
    1.9796    8.1342   22.6281 H   0  0  0  0  0  0  0  0  0  0  0  0
    4.8562    7.4466   23.3082 H   0  0  0  0  0  0  0  0  0  0  0  0
    3.7005    8.5071   24.1835 H   0  0  0  0  0  0  0  0  0  0  0  0
    4.2343    5.6905   24.6644 H   0  0  0  0  0  0  0  0  0  0  0  0
    3.0206    6.7305   25.4841 H   0  0  0  0  0  0  0  0  0  0  0  0
    2.3435    4.5954   23.8372 H   0  0  0  0  0  0  0  0  0  0  0  0
    1.2878    6.0283   24.0811 H   0  0  0  0  0  0  0  0  0  0  0  0
  1  2  2  0
  2  3  1  0
  2 11  1  0
  3  4  1  0
  3 30  1  1
  3 31  1  0
  4  5  2  0
  4  8  1  0
  5  6  1  0
  5 32  1  0
  6  7  2  0
  6 33  1  0
  7  9  1  0
  7 34  1  0
  8  9  2  0
  8 35  1  0
  9 10  1  0
 11 12  1  0
 11 36  1  0
 12 13  2  0
 12 17  1  0
 13 14  1  0
 13 18  1  0
 14 15  2  0
 14 21  1  0
 15 16  1  0
 15 37  1  0
 16 17  2  0
 17 38  1  0
 18 19  2  0
 18 39  1  0
 19 20  1  0
 19 40  1  0
 20 21  2  0
 20 22  1  0
 21 41  1  0
 22 23  1  0
 23 24  1  0
 23 42  1  6
 23 43  1  0
 24 25  1  0
 24 44  1  6
 24 45  1  0
 25 26  1  0
 25 29  1  0
 25 46  1  6
 26 27  1  0
 26 47  1  6
 26 48  1  0
 27 28  1  0
 27 49  1  6
 27 50  1  0
 28 29  1  0
 28 51  1  1
 28 52  1  0
 29 53  1  6
 29 54  1  0
M  CHG  1  25   1
M  END
$$$$
