LIG(A-306)
     RDKit          3D

 34 36  0  0  0  0  0  0  0  0999 V2000
    9.3386    0.9943   21.1658 O   0  0  0  0  0  0  0  0  0  0  0  0
    8.8529   -0.0588   21.5828 C   0  0  0  0  0  0  0  0  0  0  0  0
    9.5243   -0.8767   22.6697 C   0  0  1  0  0  0  0  0  0  0  0  0
   10.9872   -0.5364   22.8375 C   0  0  0  0  0  0  0  0  0  0  0  0
   11.3921    0.4577   23.7245 C   0  0  0  0  0  0  0  0  0  0  0  0
   12.7290    0.8230   23.8244 C   0  0  0  0  0  0  0  0  0  0  0  0
   13.6850    0.1973   23.0392 C   0  0  0  0  0  0  0  0  0  0  0  0
   11.9513   -1.1821   22.0704 C   0  0  0  0  0  0  0  0  0  0  0  0
   13.2642   -0.7938   22.1882 C   0  0  0  0  0  0  0  0  0  0  0  0
   14.1872   -1.4085   21.3981 F   0  0  0  0  0  0  0  0  0  0  0  0
    7.6950   -0.5781   21.1149 N   0  0  0  0  0  0  0  0  0  0  0  0
    6.9077   -0.0832   20.0561 C   0  0  0  0  0  0  0  0  0  0  0  0
    5.7556    0.7035   20.3693 C   0  0  0  0  0  0  0  0  0  0  0  0
    5.3227    0.9793   21.6923 C   0  0  0  0  0  0  0  0  0  0  0  0
    4.2375    1.7780   21.9255 C   0  0  0  0  0  0  0  0  0  0  0  0
    3.5262    2.3299   20.8697 C   0  0  0  0  0  0  0  0  0  0  0  0
    3.9011    2.0921   19.5776 C   0  0  0  0  0  0  0  0  0  0  0  0
    5.0253    1.2794   19.2914 C   0  0  0  0  0  0  0  0  0  0  0  0
    5.4922    1.0376   17.9733 C   0  0  0  0  0  0  0  0  0  0  0  0
    6.5653    0.3129   17.6832 N   0  0  0  0  0  0  0  0  0  0  0  0
    7.2426   -0.2280   18.7080 C   0  0  0  0  0  0  0  0  0  0  0  0
    9.0075   -0.6874   23.6222 H   0  0  0  0  0  0  0  0  0  0  0  0
    9.4385   -1.9425   22.4115 H   0  0  0  0  0  0  0  0  0  0  0  0
   10.6572    0.9514   24.3432 H   0  0  0  0  0  0  0  0  0  0  0  0
   13.0246    1.5976   24.5165 H   0  0  0  0  0  0  0  0  0  0  0  0
   14.7258    0.4802   23.0954 H   0  0  0  0  0  0  0  0  0  0  0  0
   11.6725   -1.9758   21.3931 H   0  0  0  0  0  0  0  0  0  0  0  0
    7.3610   -1.4034   21.5702 H   0  0  0  0  0  0  0  0  0  0  0  0
    5.8582    0.5521   22.5274 H   0  0  0  0  0  0  0  0  0  0  0  0
    3.9312    1.9812   22.9411 H   0  0  0  0  0  0  0  0  0  0  0  0
    2.6678    2.9536   21.0712 H   0  0  0  0  0  0  0  0  0  0  0  0
    3.3353    2.5276   18.7673 H   0  0  0  0  0  0  0  0  0  0  0  0
    4.9386    1.4712   17.1536 H   0  0  0  0  0  0  0  0  0  0  0  0
    8.1138   -0.8211   18.4720 H   0  0  0  0  0  0  0  0  0  0  0  0
  1  2  2  0
  2  3  1  0
  2 11  1  0
  3  4  1  0
  3 22  1  1
  3 23  1  0
  4  5  2  0
  4  8  1  0
  5  6  1  0
  5 24  1  0
  6  7  2  0
  6 25  1  0
  7  9  1  0
  7 26  1  0
  8  9  2  0
  8 27  1  0
  9 10  1  0
 11 12  1  0
 11 28  1  0
 12 13  2  0
 12 21  1  0
 13 14  1  0
 13 18  1  0
 14 15  2  0
 14 29  1  0
 15 16  1  0
 15 30  1  0
 16 17  2  0
 16 31  1  0
 17 18  1  0
 17 32  1  0
 18 19  2  0
 19 20  1  0
 19 33  1  0
 20 21  2  0
 21 34  1  0
M  END
$$$$
