LIG(A-306)
     RDKit          3D

 36 38  0  0  1  0  0  0  0  0999 V2000
  -14.7016   -2.3072  -20.5536 Cl  0  0  0  0  0  0  0  0  0  0  0  0
  -13.7206   -1.4324  -21.7019 C   0  0  0  0  0  0  0  0  0  0  0  0
  -14.3184   -0.5125  -22.5383 C   0  0  0  0  0  0  0  0  0  0  0  0
  -13.5259    0.2706  -23.3594 C   0  0  0  0  0  0  0  0  0  0  0  0
  -12.3534   -1.6132  -21.6830 C   0  0  0  0  0  0  0  0  0  0  0  0
  -11.5387   -0.8291  -22.4947 C   0  0  0  0  0  0  0  0  0  0  0  0
  -12.1474    0.1113  -23.3362 C   0  0  0  0  0  0  0  0  0  0  0  0
  -11.4469    0.8902  -24.2288 O   0  0  0  0  0  0  0  0  0  0  0  0
   -9.9961    0.7689  -24.2494 C   0  0  1  0  0  0  0  0  0  0  0  0
   -9.4856   -0.5994  -23.8691 C   0  0  1  0  0  0  0  0  0  0  0  0
  -10.0321   -1.0048  -22.4936 C   0  0  1  0  0  0  0  0  0  0  0  0
   -9.3885   -0.2425  -21.3310 C   0  0  0  0  0  0  0  0  0  0  0  0
   -9.8485    0.8182  -20.9065 O   0  0  0  0  0  0  0  0  0  0  0  0
   -8.2873   -0.8407  -20.8055 N   0  0  0  0  0  0  0  0  0  0  0  0
   -7.4520   -0.3220  -19.7848 C   0  0  0  0  0  0  0  0  0  0  0  0
   -6.2528    0.3236  -20.1426 C   0  0  0  0  0  0  0  0  0  0  0  0
   -5.7893    0.4032  -21.5748 C   0  0  1  0  0  0  0  0  0  0  0  0
   -7.8055   -0.3529  -18.4317 C   0  0  0  0  0  0  0  0  0  0  0  0
   -7.0795    0.2136  -17.4572 N   0  0  0  0  0  0  0  0  0  0  0  0
   -5.9492    0.8303  -17.8165 C   0  0  0  0  0  0  0  0  0  0  0  0
   -5.5051    0.9078  -19.1220 C   0  0  0  0  0  0  0  0  0  0  0  0
  -15.3929   -0.4046  -22.5522 H   0  0  0  0  0  0  0  0  0  0  0  0
  -13.9774    1.0012  -24.0142 H   0  0  0  0  0  0  0  0  0  0  0  0
  -11.9157   -2.3620  -21.0394 H   0  0  0  0  0  0  0  0  0  0  0  0
   -9.6449    0.9980  -25.2664 H   0  0  0  0  0  0  0  0  0  0  0  0
   -9.5783    1.5017  -23.5434 H   0  0  0  0  0  0  0  0  0  0  0  0
   -9.8143   -1.3318  -24.6211 H   0  0  0  0  0  0  0  0  0  0  0  0
   -8.3864   -0.5799  -23.8322 H   0  0  0  0  0  0  0  0  0  0  0  0
   -9.8173   -2.0742  -22.3515 H   0  0  0  0  0  0  0  0  0  0  0  0
   -8.0418   -1.7365  -21.1760 H   0  0  0  0  0  0  0  0  0  0  0  0
   -6.5433    0.9325  -22.1758 H   0  0  0  0  0  0  0  0  0  0  0  0
   -4.8349    0.9481  -21.6214 H   0  0  0  0  0  0  0  0  0  0  0  0
   -5.6512   -0.6131  -21.9724 H   0  0  0  0  0  0  0  0  0  0  0  0
   -8.7166   -0.8630  -18.1558 H   0  0  0  0  0  0  0  0  0  0  0  0
   -5.3514    1.2926  -17.0448 H   0  0  0  0  0  0  0  0  0  0  0  0
   -4.5820    1.4194  -19.3510 H   0  0  0  0  0  0  0  0  0  0  0  0
  1  2  1  0
  2  3  2  0
  2  5  1  0
  3  4  1  0
  3 22  1  0
  4  7  2  0
  4 23  1  0
  5  6  2  0
  5 24  1  0
  6  7  1  0
  6 11  1  0
  7  8  1  0
  8  9  1  0
  9 10  1  0
  9 25  1  6
  9 26  1  0
 10 11  1  0
 10 27  1  6
 10 28  1  0
 11 12  1  0
 11 29  1  1
 12 13  2  0
 12 14  1  0
 14 15  1  0
 14 30  1  0
 15 16  2  0
 15 18  1  0
 16 17  1  0
 16 21  1  0
 17 31  1  6
 17 32  1  0
 17 33  1  0
 18 19  2  0
 18 34  1  0
 19 20  1  0
 20 21  2  0
 20 35  1  0
 21 36  1  0
M  END
$$$$
