LIG(A-305)
     RDKit          3D

 31 32  0  0  0  0  0  0  0  0999 V2000
   13.8123   -1.9300   21.3351 Br  0  0  0  0  0  0  0  0  0  0  0  0
   12.5183   -1.0010   22.3661 C   0  0  0  0  0  0  0  0  0  0  0  0
   12.9372   -0.0539   23.2800 C   0  0  0  0  0  0  0  0  0  0  0  0
   11.9802    0.5641   24.0700 C   0  0  0  0  0  0  0  0  0  0  0  0
   10.6382    0.2620   23.9030 C   0  0  0  0  0  0  0  0  0  0  0  0
   11.1903   -1.3241   22.1991 C   0  0  0  0  0  0  0  0  0  0  0  0
   10.2293   -0.6641   22.9541 C   0  0  0  0  0  0  0  0  0  0  0  0
    8.7663   -0.8872   22.6621 C   0  0  1  0  0  0  0  0  0  0  0  0
    8.3282   -0.1193   21.4321 C   0  0  0  0  0  0  0  0  0  0  0  0
    8.9462    0.8607   21.0220 O   0  0  0  0  0  0  0  0  0  0  0  0
    7.1832   -0.5614   20.8821 N   0  0  0  0  0  0  0  0  0  0  0  0
    6.5382    0.0536   19.7871 C   0  0  0  0  0  0  0  0  0  0  0  0
    5.3962    0.8385   20.0030 C   0  0  0  0  0  0  0  0  0  0  0  0
    4.8222    1.0566   21.3810 C   0  0  1  0  0  0  0  0  0  0  0  0
    7.0492   -0.0495   18.4961 C   0  0  0  0  0  0  0  0  0  0  0  0
    6.5112    0.5704   17.4420 N   0  0  0  0  0  0  0  0  0  0  0  0
    5.4231    1.3174   17.6590 C   0  0  0  0  0  0  0  0  0  0  0  0
    4.8381    1.4704   18.8990 C   0  0  0  0  0  0  0  0  0  0  0  0
   13.9828    0.1985   23.3767 H   0  0  0  0  0  0  0  0  0  0  0  0
   12.2814    1.2829   24.8176 H   0  0  0  0  0  0  0  0  0  0  0  0
    9.9007    0.7540   24.5198 H   0  0  0  0  0  0  0  0  0  0  0  0
   10.8988   -2.0830   21.4882 H   0  0  0  0  0  0  0  0  0  0  0  0
    8.5937   -1.9606   22.4950 H   0  0  0  0  0  0  0  0  0  0  0  0
    8.1731   -0.5505   23.5251 H   0  0  0  0  0  0  0  0  0  0  0  0
    6.7614   -1.3788   21.2743 H   0  0  0  0  0  0  0  0  0  0  0  0
    5.5753    1.5404   22.0202 H   0  0  0  0  0  0  0  0  0  0  0  0
    3.9332    1.7006   21.3101 H   0  0  0  0  0  0  0  0  0  0  0  0
    4.5389    0.0875   21.8177 H   0  0  0  0  0  0  0  0  0  0  0  0
    7.9249   -0.6617   18.3387 H   0  0  0  0  0  0  0  0  0  0  0  0
    4.9784    1.8284   16.8179 H   0  0  0  0  0  0  0  0  0  0  0  0
    3.9520    2.0776   19.0107 H   0  0  0  0  0  0  0  0  0  0  0  0
  1  2  1  0
  2  3  2  0
  2  6  1  0
  3  4  1  0
  3 19  1  0
  4  5  2  0
  4 20  1  0
  5  7  1  0
  5 21  1  0
  6  7  2  0
  6 22  1  0
  7  8  1  0
  8  9  1  0
  8 23  1  6
  8 24  1  0
  9 10  2  0
  9 11  1  0
 11 12  1  0
 11 25  1  0
 12 13  2  0
 12 15  1  0
 13 14  1  0
 13 18  1  0
 14 26  1  1
 14 27  1  0
 14 28  1  0
 15 16  2  0
 15 29  1  0
 16 17  1  0
 17 18  2  0
 17 30  1  0
 18 31  1  0
M  END
$$$$
