LIG(A-305)
     RDKit          3D

 44 47  0  0  0  0  0  0  0  0999 V2000
    6.6441    1.0497   16.9348 O   0  0  0  0  0  0  0  0  0  0  0  0
    6.0502    0.8209   17.9869 C   0  0  0  0  0  0  0  0  0  0  0  0
    6.3742   -0.2551   18.8569 C   0  0  0  0  0  0  0  0  0  0  0  0
    5.0584    1.6621   18.4160 N   0  0  0  0  0  0  0  0  0  0  0  0
    4.3956    1.5393   19.6311 C   0  0  0  0  0  0  0  0  0  0  0  0
    4.7395    0.4853   20.5021 C   0  0  0  0  0  0  0  0  0  0  0  0
    4.0697    0.3675   21.7223 C   0  0  0  0  0  0  0  0  0  0  0  0
    3.0589    1.2577   22.0494 C   0  0  0  0  0  0  0  0  0  0  0  0
    2.7099    2.2707   21.1823 C   0  0  0  0  0  0  0  0  0  0  0  0
    3.3798    2.4305   19.9792 C   0  0  0  0  0  0  0  0  0  0  0  0
    5.7783   -0.4469   20.0610 C   0  0  0  0  0  0  0  0  0  0  0  0
    6.1643   -1.6519   20.8481 C   0  0  0  0  0  0  0  0  0  0  0  0
    5.6460   -2.7228   20.5722 O   0  0  0  0  0  0  0  0  0  0  0  0
    7.0754   -1.5330   21.8309 N   0  0  0  0  0  0  0  0  0  0  0  0
    7.3544   -2.6350   22.7630 C   0  0  1  0  0  0  0  0  0  0  0  0
    8.8393   -2.9752   22.7357 C   0  0  1  0  0  0  0  0  0  0  0  0
    7.8887   -0.3331   22.0737 C   0  0  1  0  0  0  0  0  0  0  0  0
    9.3726   -0.6893   22.0585 C   0  0  1  0  0  0  0  0  0  0  0  0
    9.6466   -1.7773   23.0065 N   0  0  0  0  0  0  0  0  0  0  0  0
   10.9856   -1.9595   23.4653 C   0  0  0  0  0  0  0  0  0  0  0  0
   11.2467   -2.7584   24.6013 C   0  0  0  0  0  0  0  0  0  0  0  0
   10.2167   -3.4242   25.1755 F   0  0  0  0  0  0  0  0  0  0  0  0
   12.0766   -1.3507   22.8481 C   0  0  0  0  0  0  0  0  0  0  0  0
   13.3557   -1.5219   23.3619 C   0  0  0  0  0  0  0  0  0  0  0  0
   13.5687   -2.2918   24.4939 C   0  0  0  0  0  0  0  0  0  0  0  0
   12.5087   -2.9196   25.1251 C   0  0  0  0  0  0  0  0  0  0  0  0
    7.1336   -0.9562   18.5438 H   0  0  0  0  0  0  0  0  0  0  0  0
    4.7946    2.4165   17.8194 H   0  0  0  0  0  0  0  0  0  0  0  0
    4.3399   -0.4185   22.4119 H   0  0  0  0  0  0  0  0  0  0  0  0
    2.5405    1.1567   22.9914 H   0  0  0  0  0  0  0  0  0  0  0  0
    1.9079    2.9456   21.4424 H   0  0  0  0  0  0  0  0  0  0  0  0
    3.1169    3.2404   19.3149 H   0  0  0  0  0  0  0  0  0  0  0  0
    7.0683   -2.3325   23.7811 H   0  0  0  0  0  0  0  0  0  0  0  0
    6.7722   -3.5198   22.4660 H   0  0  0  0  0  0  0  0  0  0  0  0
    9.0508   -3.7352   23.5024 H   0  0  0  0  0  0  0  0  0  0  0  0
    9.1017   -3.3720   21.7439 H   0  0  0  0  0  0  0  0  0  0  0  0
    7.6852    0.4088   21.2875 H   0  0  0  0  0  0  0  0  0  0  0  0
    7.6269    0.0907   23.0544 H   0  0  0  0  0  0  0  0  0  0  0  0
    9.6582   -1.0103   21.0459 H   0  0  0  0  0  0  0  0  0  0  0  0
    9.9610    0.1957   22.3422 H   0  0  0  0  0  0  0  0  0  0  0  0
   11.9272   -0.7439   21.9674 H   0  0  0  0  0  0  0  0  0  0  0  0
   14.1945   -1.0489   22.8729 H   0  0  0  0  0  0  0  0  0  0  0  0
   14.5687   -2.4030   24.8866 H   0  0  0  0  0  0  0  0  0  0  0  0
   12.6685   -3.5215   26.0076 H   0  0  0  0  0  0  0  0  0  0  0  0
  1  2  2  0
  2  3  1  0
  2  4  1  0
  3 11  2  0
  3 27  1  0
  4  5  1  0
  4 28  1  0
  5  6  2  0
  5 10  1  0
  6  7  1  0
  6 11  1  0
  7  8  2  0
  7 29  1  0
  8  9  1  0
  8 30  1  0
  9 10  2  0
  9 31  1  0
 10 32  1  0
 11 12  1  0
 12 13  2  0
 12 14  1  0
 14 15  1  0
 14 17  1  0
 15 16  1  0
 15 33  1  1
 15 34  1  0
 16 19  1  0
 16 35  1  1
 16 36  1  0
 17 18  1  0
 17 37  1  6
 17 38  1  0
 18 19  1  0
 18 39  1  6
 18 40  1  0
 19 20  1  0
 20 21  2  0
 20 23  1  0
 21 22  1  0
 21 26  1  0
 23 24  2  0
 23 41  1  0
 24 25  1  0
 24 42  1  0
 25 26  2  0
 25 43  1  0
 26 44  1  0
M  END
$$$$
