LIG(A-305)
     RDKit          3D

 48 51  0  0  0  0  0  0  0  0999 V2000
    9.1767    1.3843   21.0651 O   0  0  0  0  0  0  0  0  0  0  0  0
    8.9216    0.3663   21.6871 C   0  0  0  0  0  0  0  0  0  0  0  0
    8.1815   -0.7886   21.0132 C   0  0  1  0  0  0  0  0  0  0  0  0
    7.2525   -0.2965   20.0162 N   0  0  0  0  0  0  0  0  0  0  0  0
    6.1256    0.4476   20.1852 C   0  0  0  0  0  0  0  0  0  0  0  0
    5.4217    0.8807   21.3013 C   0  0  0  0  0  0  0  0  0  0  0  0
    4.3027    1.6738   21.0843 C   0  0  0  0  0  0  0  0  0  0  0  0
    3.9157    2.0309   19.7933 C   0  0  0  0  0  0  0  0  0  0  0  0
    4.6326    1.5968   18.6863 C   0  0  0  0  0  0  0  0  0  0  0  0
    5.7456    0.7867   18.8913 C   0  0  0  0  0  0  0  0  0  0  0  0
    6.6395    0.2276   18.0082 N   0  0  0  0  0  0  0  0  0  0  0  0
    7.5354   -0.4226   18.6952 N   0  0  0  0  0  0  0  0  0  0  0  0
    9.2557    0.2132   23.0011 N   0  0  0  0  0  0  0  0  0  0  0  0
    9.1065   -1.0037   23.7341 C   0  0  0  0  0  0  0  0  0  0  0  0
    8.2016   -1.0806   24.7912 C   0  0  0  0  0  0  0  0  0  0  0  0
    8.1135   -2.2326   25.5532 C   0  0  0  0  0  0  0  0  0  0  0  0
    9.9084   -2.0998   23.4361 C   0  0  0  0  0  0  0  0  0  0  0  0
    9.8103   -3.2568   24.1841 C   0  0  0  0  0  0  0  0  0  0  0  0
    8.9193   -3.3207   25.2481 C   0  0  0  0  0  0  0  0  0  0  0  0
    8.8032   -4.4277   26.0521 O   0  0  0  0  0  0  0  0  0  0  0  0
    9.6111   -5.5648   25.7461 C   0  0  1  0  0  0  0  0  0  0  0  0
    9.8258    1.3602   23.7211 C   0  0  1  0  0  0  0  0  0  0  0  0
   11.2698    1.6270   23.3700 C   0  0  0  0  0  0  0  0  0  0  0  0
   11.6529    2.8470   22.8180 C   0  0  0  0  0  0  0  0  0  0  0  0
   12.9500    3.0158   22.3690 C   0  0  0  0  0  0  0  0  0  0  0  0
   13.4361    4.5678   21.7480 Cl  0  0  0  0  0  0  0  0  0  0  0  0
   13.8778    2.0007   22.4380 C   0  0  0  0  0  0  0  0  0  0  0  0
   13.5067    0.8017   23.0190 C   0  0  0  0  0  0  0  0  0  0  0  0
   12.2157    0.6199   23.4870 C   0  0  0  0  0  0  0  0  0  0  0  0
    8.9134   -1.4507   20.5275 H   0  0  0  0  0  0  0  0  0  0  0  0
    7.6253   -1.3537   21.7757 H   0  0  0  0  0  0  0  0  0  0  0  0
    5.7326    0.6109   22.2998 H   0  0  0  0  0  0  0  0  0  0  0  0
    3.7237    2.0192   21.9280 H   0  0  0  0  0  0  0  0  0  0  0  0
    3.0453    2.6545   19.6523 H   0  0  0  0  0  0  0  0  0  0  0  0
    4.3333    1.8814   17.6884 H   0  0  0  0  0  0  0  0  0  0  0  0
    7.5659   -0.2372   25.0168 H   0  0  0  0  0  0  0  0  0  0  0  0
    7.4214   -2.2847   26.3807 H   0  0  0  0  0  0  0  0  0  0  0  0
   10.6103   -2.0464   22.6170 H   0  0  0  0  0  0  0  0  0  0  0  0
   10.4255   -4.1108   23.9421 H   0  0  0  0  0  0  0  0  0  0  0  0
    9.4084   -6.3655   26.4726 H   0  0  0  0  0  0  0  0  0  0  0  0
    9.3740   -5.9208   24.7326 H   0  0  0  0  0  0  0  0  0  0  0  0
   10.6734   -5.2840   25.7970 H   0  0  0  0  0  0  0  0  0  0  0  0
    9.2355    2.2552   23.4754 H   0  0  0  0  0  0  0  0  0  0  0  0
    9.7597    1.1625   24.8012 H   0  0  0  0  0  0  0  0  0  0  0  0
   10.9416    3.6559   22.7412 H   0  0  0  0  0  0  0  0  0  0  0  0
   14.8749    2.1380   22.0463 H   0  0  0  0  0  0  0  0  0  0  0  0
   14.2277    0.0026   23.1082 H   0  0  0  0  0  0  0  0  0  0  0  0
   11.9426   -0.3176   23.9485 H   0  0  0  0  0  0  0  0  0  0  0  0
  1  2  2  0
  2  3  1  0
  2 13  1  0
  3  4  1  0
  3 30  1  6
  3 31  1  0
  4  5  1  0
  4 12  1  0
  5  6  2  0
  5 10  1  0
  6  7  1  0
  6 32  1  0
  7  8  2  0
  7 33  1  0
  8  9  1  0
  8 34  1  0
  9 10  2  0
  9 35  1  0
 10 11  1  0
 11 12  2  0
 13 14  1  0
 13 22  1  0
 14 15  2  0
 14 17  1  0
 15 16  1  0
 15 36  1  0
 16 19  2  0
 16 37  1  0
 17 18  2  0
 17 38  1  0
 18 19  1  0
 18 39  1  0
 19 20  1  0
 20 21  1  0
 21 40  1  1
 21 41  1  0
 21 42  1  0
 22 23  1  0
 22 43  1  1
 22 44  1  0
 23 24  2  0
 23 29  1  0
 24 25  1  0
 24 45  1  0
 25 26  1  0
 25 27  2  0
 27 28  1  0
 27 46  1  0
 28 29  2  0
 28 47  1  0
 29 48  1  0
M  END
$$$$
