LIG(A-305)
     RDKit          3D

 45 48  0  0  1  0  0  0  0  0999 V2000
    6.3953   -2.5704   20.9145 O   0  0  0  0  0  0  0  0  0  0  0  0
    7.2244   -1.8264   21.4144 C   0  0  0  0  0  0  0  0  0  0  0  0
    8.1025   -2.2925   22.5854 C   0  0  2  0  0  0  0  0  0  0  0  0
    8.0727   -1.2545   23.6994 C   0  0  0  0  0  0  0  0  0  0  0  0
    6.8527   -0.7424   24.1255 C   0  0  0  0  0  0  0  0  0  0  0  0
    6.8279    0.2116   25.1215 C   0  0  0  0  0  0  0  0  0  0  0  0
    5.2890    0.8177   25.6576 Cl  0  0  0  0  0  0  0  0  0  0  0  0
    7.9800    0.6766   25.7183 C   0  0  0  0  0  0  0  0  0  0  0  0
    9.2019    0.1735   25.3122 C   0  0  0  0  0  0  0  0  0  0  0  0
    9.2438   -0.7855   24.3132 C   0  0  0  0  0  0  0  0  0  0  0  0
   10.4997   -1.2476   23.9931 O   0  0  0  0  0  0  0  0  0  0  0  0
   10.5376   -2.4706   23.2281 C   0  0  1  0  0  0  0  0  0  0  0  0
    9.5555   -2.4186   22.0772 C   0  0  1  0  0  0  0  0  0  0  0  0
    7.6845   -3.6754   23.1114 C   0  0  1  0  0  0  0  0  0  0  0  0
    6.2545   -3.8334   23.3716 N   0  0  1  0  0  0  0  0  0  0  0  0
    7.4195   -0.5745   20.9674 N   0  0  0  0  0  0  0  0  0  0  0  0
    6.7244    0.0366   19.9055 C   0  0  0  0  0  0  0  0  0  0  0  0
    5.5425    0.7746   20.2066 C   0  0  0  0  0  0  0  0  0  0  0  0
    5.0016    0.9007   21.5116 C   0  0  0  0  0  0  0  0  0  0  0  0
    3.8517    1.6038   21.7287 C   0  0  0  0  0  0  0  0  0  0  0  0
    3.1896    2.2188   20.6778 C   0  0  0  0  0  0  0  0  0  0  0  0
    3.6735    2.1337   19.4037 C   0  0  0  0  0  0  0  0  0  0  0  0
    4.8594    1.4087   19.1326 C   0  0  0  0  0  0  0  0  0  0  0  0
    5.4053    1.2686   17.8336 C   0  0  0  0  0  0  0  0  0  0  0  0
    6.5002    0.5745   17.5545 N   0  0  0  0  0  0  0  0  0  0  0  0
    7.1273   -0.0285   18.5704 C   0  0  0  0  0  0  0  0  0  0  0  0
    5.9317   -1.0886   23.6804 H   0  0  0  0  0  0  0  0  0  0  0  0
    7.9287    1.4256   26.4947 H   0  0  0  0  0  0  0  0  0  0  0  0
   10.1152    0.5248   25.7693 H   0  0  0  0  0  0  0  0  0  0  0  0
   11.5525   -2.6146   22.8293 H   0  0  0  0  0  0  0  0  0  0  0  0
   10.2786   -3.3143   23.8848 H   0  0  0  0  0  0  0  0  0  0  0  0
    9.6490   -3.3403   21.4842 H   0  0  0  0  0  0  0  0  0  0  0  0
    9.7905   -1.5500   21.4445 H   0  0  0  0  0  0  0  0  0  0  0  0
    7.9803   -4.4276   22.3653 H   0  0  0  0  0  0  0  0  0  0  0  0
    8.2244   -3.8599   24.0519 H   0  0  0  0  0  0  0  0  0  0  0  0
    6.0383   -4.8048   23.4700 H   0  0  0  0  0  0  0  0  0  0  0  0
    6.0139   -3.3514   24.2141 H   0  0  0  0  0  0  0  0  0  0  0  0
    5.7329   -3.4516   22.6086 H   0  0  0  0  0  0  0  0  0  0  0  0
    8.1190   -0.0289   21.4288 H   0  0  0  0  0  0  0  0  0  0  0  0
    5.5062    0.4343   22.3448 H   0  0  0  0  0  0  0  0  0  0  0  0
    3.4538    1.6815   22.7298 H   0  0  0  0  0  0  0  0  0  0  0  0
    2.2813    2.7711   20.8685 H   0  0  0  0  0  0  0  0  0  0  0  0
    3.1480    2.6229   18.5970 H   0  0  0  0  0  0  0  0  0  0  0  0
    4.8966    1.7590   17.0168 H   0  0  0  0  0  0  0  0  0  0  0  0
    8.0094   -0.6078   18.3413 H   0  0  0  0  0  0  0  0  0  0  0  0
  1  2  2  0
  3  2  1  6
  2 16  1  0
  3  4  1  0
  3 13  1  0
  3 14  1  0
  4  5  2  0
  4 10  1  0
  5  6  1  0
  5 27  1  0
  6  7  1  0
  6  8  2  0
  8  9  1  0
  8 28  1  0
  9 10  2  0
  9 29  1  0
 10 11  1  0
 11 12  1  0
 12 13  1  0
 12 30  1  6
 12 31  1  0
 13 32  1  6
 13 33  1  0
 14 15  1  0
 14 34  1  6
 14 35  1  0
 15 36  1  1
 15 37  1  0
 15 38  1  0
 16 17  1  0
 16 39  1  0
 17 18  2  0
 17 26  1  0
 18 19  1  0
 18 23  1  0
 19 20  2  0
 19 40  1  0
 20 21  1  0
 20 41  1  0
 21 22  2  0
 21 42  1  0
 22 23  1  0
 22 43  1  0
 23 24  2  0
 24 25  1  0
 24 44  1  0
 25 26  2  0
 26 45  1  0
M  CHG  1  15   1
M  END
$$$$
