LIG(A-305)
     RDKit          3D

 33 35  0  0  0  0  0  0  0  0999 V2000
    8.8126    0.8953   21.0943 O   0  0  0  0  0  0  0  0  0  0  0  0
    8.3576   -0.2227   21.3134 C   0  0  0  0  0  0  0  0  0  0  0  0
    8.8686   -1.0887   22.4503 C   0  0  1  0  0  0  0  0  0  0  0  0
   10.3087   -0.7547   22.7702 C   0  0  0  0  0  0  0  0  0  0  0  0
   10.6308    0.2743   23.6471 C   0  0  0  0  0  0  0  0  0  0  0  0
   11.9508    0.6593   23.8360 C   0  0  0  0  0  0  0  0  0  0  0  0
   12.9717    0.0062   23.1639 C   0  0  0  0  0  0  0  0  0  0  0  0
   11.3346   -1.4117   22.1021 C   0  0  0  0  0  0  0  0  0  0  0  0
   12.6416   -1.0238   22.3040 C   0  0  0  0  0  0  0  0  0  0  0  0
   13.9035   -1.8398   21.4229 Cl  0  0  0  0  0  0  0  0  0  0  0  0
    7.4625   -0.7917   20.5105 N   0  0  0  0  0  0  0  0  0  0  0  0
    6.6034   -0.2426   19.6395 C   0  0  0  0  0  0  0  0  0  0  0  0
    5.4855    0.5564   20.0756 C   0  0  0  0  0  0  0  0  0  0  0  0
    4.8274    1.3114   19.0637 C   0  0  0  0  0  0  0  0  0  0  0  0
    5.3782    1.2754   17.7686 C   0  0  0  0  0  0  0  0  0  0  0  0
    6.4482    0.5933   17.4575 N   0  0  0  0  0  0  0  0  0  0  0  0
    7.0333   -0.1837   18.3845 N   0  0  0  0  0  0  0  0  0  0  0  0
    4.9396    0.5854   21.3837 C   0  0  0  0  0  0  0  0  0  0  0  0
    3.8026    1.2995   21.6568 C   0  0  0  0  0  0  0  0  0  0  0  0
    3.1605    2.0165   20.6628 C   0  0  0  0  0  0  0  0  0  0  0  0
    3.6494    2.0324   19.3918 C   0  0  0  0  0  0  0  0  0  0  0  0
    8.2504   -0.9142   23.3433 H   0  0  0  0  0  0  0  0  0  0  0  0
    8.7997   -2.1468   22.1577 H   0  0  0  0  0  0  0  0  0  0  0  0
    9.8448    0.7802   24.1880 H   0  0  0  0  0  0  0  0  0  0  0  0
   12.1833    1.4710   24.5095 H   0  0  0  0  0  0  0  0  0  0  0  0
   14.0021    0.2958   23.3090 H   0  0  0  0  0  0  0  0  0  0  0  0
   11.1086   -2.2237   21.4268 H   0  0  0  0  0  0  0  0  0  0  0  0
    7.4241   -1.7895   20.5653 H   0  0  0  0  0  0  0  0  0  0  0  0
    4.8898    1.8424   16.9900 H   0  0  0  0  0  0  0  0  0  0  0  0
    5.4269    0.0369   22.1761 H   0  0  0  0  0  0  0  0  0  0  0  0
    3.4027    1.3027   22.6600 H   0  0  0  0  0  0  0  0  0  0  0  0
    2.2627    2.5690   20.8972 H   0  0  0  0  0  0  0  0  0  0  0  0
    3.1370    2.5980   18.6276 H   0  0  0  0  0  0  0  0  0  0  0  0
  1  2  2  0
  2  3  1  0
  2 11  1  0
  3  4  1  0
  3 22  1  1
  3 23  1  0
  4  5  2  0
  4  8  1  0
  5  6  1  0
  5 24  1  0
  6  7  2  0
  6 25  1  0
  7  9  1  0
  7 26  1  0
  8  9  2  0
  8 27  1  0
  9 10  1  0
 11 12  1  0
 11 28  1  0
 12 13  2  0
 12 17  1  0
 13 14  1  0
 13 18  1  0
 14 15  2  0
 14 21  1  0
 15 16  1  0
 15 29  1  0
 16 17  2  0
 18 19  2  0
 18 30  1  0
 19 20  1  0
 19 31  1  0
 20 21  2  0
 20 32  1  0
 21 33  1  0
M  END
$$$$
