LIG(A-306)
     RDKit          3D

 50 54  0  0  1  0  0  0  0  0999 V2000
   -8.1084    1.8646  -25.8828 O   0  0  0  0  0  0  0  0  0  0  0  0
   -7.5958    0.5828  -25.5029 S   0  0  2  0  0  0  0  0  0  0  0  0
   -6.3852    0.4930  -24.7475 O   0  0  0  0  0  0  0  0  0  0  0  0
   -7.4968   -0.3684  -26.9051 C   0  0  0  0  0  0  0  0  0  0  0  0
   -6.7923   -1.5058  -27.0792 N   0  0  0  0  0  0  0  0  0  0  0  0
   -7.0466   -1.9609  -28.3409 C   0  0  0  0  0  0  0  0  0  0  0  0
   -7.9033   -1.0655  -28.8936 C   0  0  0  0  0  0  0  0  0  0  0  0
   -8.1814   -0.0637  -27.9905 N   0  0  0  0  0  0  0  0  0  0  0  0
   -8.7769   -0.1092  -24.6172 N   0  0  0  0  0  0  0  0  0  0  0  0
  -10.1545    0.1480  -25.0598 C   0  0  1  0  0  0  0  0  0  0  0  0
   -8.5378   -1.4598  -24.0738 C   0  0  1  0  0  0  0  0  0  0  0  0
   -9.3477   -1.5960  -22.7848 C   0  0  2  0  0  0  0  0  0  0  0  0
  -10.8095   -1.2817  -23.0456 C   0  0  0  0  0  0  0  0  0  0  0  0
  -11.1698   -0.4087  -24.0866 C   0  0  0  0  0  0  0  0  0  0  0  0
  -12.5182   -0.1046  -24.2784 C   0  0  0  0  0  0  0  0  0  0  0  0
  -13.4991   -0.6733  -23.4873 C   0  0  0  0  0  0  0  0  0  0  0  0
  -11.8043   -1.8550  -22.2543 C   0  0  0  0  0  0  0  0  0  0  0  0
  -13.1294   -1.5478  -22.4914 C   0  0  0  0  0  0  0  0  0  0  0  0
  -14.3592   -2.2941  -21.5101 Cl  0  0  0  0  0  0  0  0  0  0  0  0
   -8.8340   -0.6247  -21.7199 C   0  0  0  0  0  0  0  0  0  0  0  0
   -9.0911    0.5766  -21.7521 O   0  0  0  0  0  0  0  0  0  0  0  0
   -8.0715   -1.1931  -20.7633 N   0  0  0  0  0  0  0  0  0  0  0  0
   -7.1635   -0.6391  -19.8359 C   0  0  0  0  0  0  0  0  0  0  0  0
   -6.2255    0.3791  -20.2140 C   0  0  0  0  0  0  0  0  0  0  0  0
   -5.7656    0.5717  -21.5421 C   0  0  0  0  0  0  0  0  0  0  0  0
   -4.7505    1.4447  -21.8213 C   0  0  0  0  0  0  0  0  0  0  0  0
   -4.1541    2.1821  -20.8068 C   0  0  0  0  0  0  0  0  0  0  0  0
   -4.5656    2.0438  -19.5133 C   0  0  0  0  0  0  0  0  0  0  0  0
   -5.6016    1.1361  -19.1782 C   0  0  0  0  0  0  0  0  0  0  0  0
   -5.9626    0.8484  -17.8423 C   0  0  0  0  0  0  0  0  0  0  0  0
   -6.8085   -0.1015  -17.4896 N   0  0  0  0  0  0  0  0  0  0  0  0
   -7.3702   -0.8218  -18.4677 C   0  0  0  0  0  0  0  0  0  0  0  0
   -6.1926   -1.9375  -26.4069 H   0  0  0  0  0  0  0  0  0  0  0  0
   -6.6477   -2.8512  -28.8042 H   0  0  0  0  0  0  0  0  0  0  0  0
   -8.3071   -1.1290  -29.8933 H   0  0  0  0  0  0  0  0  0  0  0  0
  -10.3035    1.2343  -25.1474 H   0  0  0  0  0  0  0  0  0  0  0  0
  -10.3069   -0.3234  -26.0419 H   0  0  0  0  0  0  0  0  0  0  0  0
   -8.8622   -2.2185  -24.8013 H   0  0  0  0  0  0  0  0  0  0  0  0
   -7.4672   -1.5923  -23.8586 H   0  0  0  0  0  0  0  0  0  0  0  0
   -9.2581   -2.6257  -22.4083 H   0  0  0  0  0  0  0  0  0  0  0  0
  -12.8004    0.5870  -25.0584 H   0  0  0  0  0  0  0  0  0  0  0  0
  -14.5401   -0.4348  -23.6486 H   0  0  0  0  0  0  0  0  0  0  0  0
  -11.5394   -2.5364  -21.4593 H   0  0  0  0  0  0  0  0  0  0  0  0
   -8.1668   -2.1865  -20.6999 H   0  0  0  0  0  0  0  0  0  0  0  0
   -6.2255    0.0187  -22.3477 H   0  0  0  0  0  0  0  0  0  0  0  0
   -4.4098    1.5616  -22.8395 H   0  0  0  0  0  0  0  0  0  0  0  0
   -3.3572    2.8714  -21.0440 H   0  0  0  0  0  0  0  0  0  0  0  0
   -4.0975    2.6315  -18.7374 H   0  0  0  0  0  0  0  0  0  0  0  0
   -5.5174    1.4445  -17.0594 H   0  0  0  0  0  0  0  0  0  0  0  0
   -8.0422   -1.6140  -18.1724 H   0  0  0  0  0  0  0  0  0  0  0  0
  1  2  2  0
  2  3  2  0
  2  4  1  0
  2  9  1  1
  4  5  1  0
  4  8  2  0
  5  6  1  0
  5 33  1  0
  6  7  2  0
  6 34  1  0
  7  8  1  0
  7 35  1  0
  9 10  1  0
  9 11  1  0
 10 14  1  0
 10 36  1  6
 10 37  1  0
 11 12  1  0
 11 38  1  6
 11 39  1  0
 12 13  1  0
 12 20  1  0
 12 40  1  1
 13 14  2  0
 13 17  1  0
 14 15  1  0
 15 16  2  0
 15 41  1  0
 16 18  1  0
 16 42  1  0
 17 18  2  0
 17 43  1  0
 18 19  1  0
 20 21  2  0
 20 22  1  0
 22 23  1  0
 22 44  1  0
 23 24  2  0
 23 32  1  0
 24 25  1  0
 24 29  1  0
 25 26  2  0
 25 45  1  0
 26 27  1  0
 26 46  1  0
 27 28  2  0
 27 47  1  0
 28 29  1  0
 28 48  1  0
 29 30  2  0
 30 31  1  0
 30 49  1  0
 31 32  2  0
 32 50  1  0
M  END
$$$$
