LIG(A-305)
     RDKit          3D

 41 44  0  0  1  0  0  0  0  0999 V2000
    9.1182    1.0022   21.0663 O   0  0  0  0  0  0  0  0  0  0  0  0
    8.7161    0.0013   21.6244 C   0  0  0  0  0  0  0  0  0  0  0  0
    9.3982   -0.5188   22.8823 C   0  0  2  0  0  0  0  0  0  0  0  0
   10.8962   -0.2540   22.8511 C   0  0  0  0  0  0  0  0  0  0  0  0
   11.4595    0.7070   23.6820 C   0  0  0  0  0  0  0  0  0  0  0  0
   12.8215    0.9558   23.6538 C   0  0  0  0  0  0  0  0  0  0  0  0
   13.6473    0.2337   22.8088 C   0  0  0  0  0  0  0  0  0  0  0  0
   11.7230   -0.9701   21.9931 C   0  0  0  0  0  0  0  0  0  0  0  0
   13.0831   -0.7253   21.9939 C   0  0  0  0  0  0  0  0  0  0  0  0
   14.1128   -1.6875   20.9738 Cl  0  0  0  0  0  0  0  0  0  0  0  0
    7.6200   -0.6756   21.1626 N   0  0  0  0  0  0  0  0  0  0  0  0
    7.0019   -1.8715   21.7797 C   0  0  1  0  0  0  0  0  0  0  0  0
    7.5140   -2.1435   23.1827 C   0  0  1  0  0  0  0  0  0  0  0  0
    9.0261   -1.9587   23.2435 C   0  0  2  0  0  0  0  0  0  0  0  0
    6.8759   -0.1106   20.0807 C   0  0  0  0  0  0  0  0  0  0  0  0
    5.7420    0.7316   20.2828 C   0  0  0  0  0  0  0  0  0  0  0  0
    5.2313    1.0867   21.5598 C   0  0  0  0  0  0  0  0  0  0  0  0
    4.1274    1.8829   21.6779 C   0  0  0  0  0  0  0  0  0  0  0  0
    3.4873    2.3779   20.5500 C   0  0  0  0  0  0  0  0  0  0  0  0
    3.9581    2.0918   19.3009 C   0  0  0  0  0  0  0  0  0  0  0  0
    5.0990    1.2696   19.1318 C   0  0  0  0  0  0  0  0  0  0  0  0
    5.6528    0.9615   17.8628 C   0  0  0  0  0  0  0  0  0  0  0  0
    6.7226    0.1933   17.6827 N   0  0  0  0  0  0  0  0  0  0  0  0
    7.2957   -0.3297   18.7746 C   0  0  0  0  0  0  0  0  0  0  0  0
    9.0078    0.0988   23.7047 H   0  0  0  0  0  0  0  0  0  0  0  0
   10.8282    1.2658   24.3570 H   0  0  0  0  0  0  0  0  0  0  0  0
   13.2419    1.7171   24.2943 H   0  0  0  0  0  0  0  0  0  0  0  0
   14.7113    0.4176   22.7882 H   0  0  0  0  0  0  0  0  0  0  0  0
   11.3051   -1.7131   21.3301 H   0  0  0  0  0  0  0  0  0  0  0  0
    5.9135   -1.7194   21.8268 H   0  0  0  0  0  0  0  0  0  0  0  0
    7.2231   -2.7457   21.1496 H   0  0  0  0  0  0  0  0  0  0  0  0
    7.0353   -1.4449   23.8847 H   0  0  0  0  0  0  0  0  0  0  0  0
    7.2638   -3.1767   23.4656 H   0  0  0  0  0  0  0  0  0  0  0  0
    9.3785   -2.1805   24.2616 H   0  0  0  0  0  0  0  0  0  0  0  0
    9.5051   -2.6471   22.5316 H   0  0  0  0  0  0  0  0  0  0  0  0
    5.7225    0.7222   22.4499 H   0  0  0  0  0  0  0  0  0  0  0  0
    3.7488    2.1297   22.6588 H   0  0  0  0  0  0  0  0  0  0  0  0
    2.6083    2.9954   20.6616 H   0  0  0  0  0  0  0  0  0  0  0  0
    3.4562    2.4958   18.4342 H   0  0  0  0  0  0  0  0  0  0  0  0
    5.1751    1.3771   16.9878 H   0  0  0  0  0  0  0  0  0  0  0  0
    8.1513   -0.9722   18.6281 H   0  0  0  0  0  0  0  0  0  0  0  0
  1  2  2  0
  2  3  1  0
  2 11  1  0
  3  4  1  0
  3 14  1  0
  3 25  1  1
  4  5  2  0
  4  8  1  0
  5  6  1  0
  5 26  1  0
  6  7  2  0
  6 27  1  0
  7  9  1  0
  7 28  1  0
  8  9  2  0
  8 29  1  0
  9 10  1  0
 11 12  1  0
 11 15  1  0
 12 13  1  0
 12 30  1  1
 12 31  1  0
 13 14  1  0
 13 32  1  1
 13 33  1  0
 14 34  1  1
 14 35  1  0
 15 16  2  0
 15 24  1  0
 16 17  1  0
 16 21  1  0
 17 18  2  0
 17 36  1  0
 18 19  1  0
 18 37  1  0
 19 20  2  0
 19 38  1  0
 20 21  1  0
 20 39  1  0
 21 22  2  0
 22 23  1  0
 22 40  1  0
 23 24  2  0
 24 41  1  0
M  END
$$$$
