LIG(A-305)
     RDKit          3D

 40 43  0  0  1  0  0  0  0  0999 V2000
   13.9230   -1.7710   20.9240 Cl  0  0  0  0  0  0  0  0  0  0  0  0
   12.8230   -0.9240   21.9760 C   0  0  0  0  0  0  0  0  0  0  0  0
   13.3140    0.0481   22.8210 C   0  0  0  0  0  0  0  0  0  0  0  0
   12.4450    0.6971   23.6790 C   0  0  0  0  0  0  0  0  0  0  0  0
   11.4830   -1.2541   21.9481 C   0  0  0  0  0  0  0  0  0  0  0  0
   10.5940   -0.5941   22.7941 C   0  0  0  0  0  0  0  0  0  0  0  0
   11.0980    0.3700   23.6601 C   0  0  0  0  0  0  0  0  0  0  0  0
   10.2910    1.0310   24.5471 O   0  0  0  0  0  0  0  0  0  0  0  0
    9.2991    0.1769   25.1312 C   0  0  1  0  0  0  0  0  0  0  0  0
    8.3611   -0.4242   24.1083 C   0  0  1  0  0  0  0  0  0  0  0  0
    9.1030   -0.8592   22.7912 C   0  0  1  0  0  0  0  0  0  0  0  0
    8.5309   -0.0923   21.5962 C   0  0  0  0  0  0  0  0  0  0  0  0
    9.1828    0.7627   21.0001 O   0  0  0  0  0  0  0  0  0  0  0  0
    7.2199   -0.3344   21.3533 N   0  0  0  0  0  0  0  0  0  0  0  0
    6.4179    0.0585   20.2653 C   0  0  0  0  0  0  0  0  0  0  0  0
    6.9308    0.3124   19.0073 C   0  0  0  0  0  0  0  0  0  0  0  0
    5.1048    0.5414   20.5784 C   0  0  0  0  0  0  0  0  0  0  0  0
    4.4117    1.2983   19.5904 C   0  0  0  0  0  0  0  0  0  0  0  0
    5.0167    1.5023   18.3463 C   0  0  0  0  0  0  0  0  0  0  0  0
    6.2437    1.0153   18.0773 N   0  0  0  0  0  0  0  0  0  0  0  0
    6.8006    1.2713   16.9232 O   0  0  0  0  0  0  0  0  0  0  0  0
    3.1677    1.8862   19.9194 C   0  0  0  0  0  0  0  0  0  0  0  0
    2.6328    1.7263   21.1644 C   0  0  0  0  0  0  0  0  0  0  0  0
    3.2949    0.9814   22.1274 C   0  0  0  0  0  0  0  0  0  0  0  0
    4.4979    0.3964   21.8504 C   0  0  0  0  0  0  0  0  0  0  0  0
   14.3642    0.2997   22.8130 H   0  0  0  0  0  0  0  0  0  0  0  0
   12.8126    1.4522   24.3579 H   0  0  0  0  0  0  0  0  0  0  0  0
   11.1258   -2.0192   21.2747 H   0  0  0  0  0  0  0  0  0  0  0  0
    9.8089   -0.6403   25.6624 H   0  0  0  0  0  0  0  0  0  0  0  0
    8.7066    0.7659   25.8468 H   0  0  0  0  0  0  0  0  0  0  0  0
    7.8783   -1.3086   24.5494 H   0  0  0  0  0  0  0  0  0  0  0  0
    7.5948    0.3219   23.8512 H   0  0  0  0  0  0  0  0  0  0  0  0
    8.9307   -1.9347   22.6375 H   0  0  0  0  0  0  0  0  0  0  0  0
    6.7513   -0.8739   22.0529 H   0  0  0  0  0  0  0  0  0  0  0  0
    7.9125   -0.0625   18.7583 H   0  0  0  0  0  0  0  0  0  0  0  0
    4.4902    2.0609   17.5866 H   0  0  0  0  0  0  0  0  0  0  0  0
    2.6370    2.4665   19.1790 H   0  0  0  0  0  0  0  0  0  0  0  0
    1.6841    2.1846   21.4018 H   0  0  0  0  0  0  0  0  0  0  0  0
    2.8553    0.8621   23.1068 H   0  0  0  0  0  0  0  0  0  0  0  0
    4.9941   -0.1856   22.6129 H   0  0  0  0  0  0  0  0  0  0  0  0
  1  2  1  0
  2  3  2  0
  2  5  1  0
  3  4  1  0
  3 26  1  0
  4  7  2  0
  4 27  1  0
  5  6  2  0
  5 28  1  0
  6  7  1  0
  6 11  1  0
  7  8  1  0
  8  9  1  0
  9 10  1  0
  9 29  1  1
  9 30  1  0
 10 11  1  0
 10 31  1  1
 10 32  1  0
 11 12  1  0
 11 33  1  6
 12 13  2  0
 12 14  1  0
 14 15  1  0
 14 34  1  0
 15 16  2  0
 15 17  1  0
 16 20  1  0
 16 35  1  0
 17 18  2  0
 17 25  1  0
 18 19  1  0
 18 22  1  0
 19 20  2  0
 19 36  1  0
 20 21  2  0
 22 23  2  0
 22 37  1  0
 23 24  1  0
 23 38  1  0
 24 25  2  0
 24 39  1  0
 25 40  1  0
M  END
$$$$
