LIG(B-306)
     RDKit          3D

 37 39  0  0  0  0  0  0  0  0999 V2000
   -9.9402   -0.2146  -22.6243 N   0  0  0  0  0  0  0  0  0  0  0  0
   -7.8125   -0.3137  -18.6143 N   0  0  0  0  0  0  0  0  0  0  0  0
   -9.9405   -1.5656  -23.1985 C   0  0  1  0  0  0  0  0  0  0  0  0
   -9.1695    0.1542  -21.5878 C   0  0  0  0  0  0  0  0  0  0  0  0
   -8.2727   -0.8851  -20.9336 C   0  0  1  0  0  0  0  0  0  0  0  0
   -5.9507    0.7958  -18.7702 C   0  0  0  0  0  0  0  0  0  0  0  0
   -4.7873    1.5358  -18.5166 C   0  0  0  0  0  0  0  0  0  0  0  0
   -4.3710    1.4976  -20.8942 C   0  0  0  0  0  0  0  0  0  0  0  0
  -10.8708    0.7317  -23.2592 C   0  0  1  0  0  0  0  0  0  0  0  0
  -13.6823   -1.7920  -24.1068 C   0  0  1  0  0  0  0  0  0  0  0  0
   -5.5005    0.7716  -21.1638 C   0  0  0  0  0  0  0  0  0  0  0  0
   -6.2798    0.4204  -20.0623 C   0  0  0  0  0  0  0  0  0  0  0  0
  -12.2744    0.1646  -23.3269 C   0  0  1  0  0  0  0  0  0  0  0  0
  -12.2797   -1.2057  -23.9911 C   0  0  1  0  0  0  0  0  0  0  0  0
  -11.3490   -2.1165  -23.2043 C   0  0  2  0  0  0  0  0  0  0  0  0
   -4.0229    1.8691  -19.5940 C   0  0  0  0  0  0  0  0  0  0  0  0
   -7.4457   -0.2683  -19.9231 N   0  0  0  0  0  0  0  0  0  0  0  0
   -6.9151    0.3182  -17.9110 N   0  0  0  0  0  0  0  0  0  0  0  0
   -9.1400    1.3116  -21.1969 O   0  0  0  0  0  0  0  0  0  0  0  0
   -9.5595   -1.5248  -24.2297 H   0  0  0  0  0  0  0  0  0  0  0  0
   -9.2944   -2.2198  -22.5947 H   0  0  0  0  0  0  0  0  0  0  0  0
   -8.8970   -1.6615  -20.4673 H   0  0  0  0  0  0  0  0  0  0  0  0
   -7.6293   -1.3430  -21.6993 H   0  0  0  0  0  0  0  0  0  0  0  0
   -4.5101    1.8279  -17.5145 H   0  0  0  0  0  0  0  0  0  0  0  0
   -3.7300    1.7918  -21.7122 H   0  0  0  0  0  0  0  0  0  0  0  0
  -10.8888    1.6630  -22.6741 H   0  0  0  0  0  0  0  0  0  0  0  0
  -10.5218    0.9465  -24.2800 H   0  0  0  0  0  0  0  0  0  0  0  0
  -13.6293   -2.7779  -24.5915 H   0  0  0  0  0  0  0  0  0  0  0  0
  -14.1183   -1.9001  -23.1027 H   0  0  0  0  0  0  0  0  0  0  0  0
  -14.3116   -1.1206  -24.7095 H   0  0  0  0  0  0  0  0  0  0  0  0
   -5.7715    0.4879  -22.1701 H   0  0  0  0  0  0  0  0  0  0  0  0
  -12.6738    0.0709  -22.3062 H   0  0  0  0  0  0  0  0  0  0  0  0
  -12.9104    0.8483  -23.9083 H   0  0  0  0  0  0  0  0  0  0  0  0
  -11.8715   -1.0947  -25.0065 H   0  0  0  0  0  0  0  0  0  0  0  0
  -11.7105   -2.1941  -22.1684 H   0  0  0  0  0  0  0  0  0  0  0  0
  -11.3444   -3.1145  -23.6669 H   0  0  0  0  0  0  0  0  0  0  0  0
   -3.1189    2.4388  -19.4375 H   0  0  0  0  0  0  0  0  0  0  0  0
  1  3  1  0
  1  4  1  0
  1  9  1  0
  2 17  1  0
  2 18  2  0
  3 15  1  0
  3 20  1  6
  3 21  1  0
  4  5  1  0
  4 19  2  0
  5 17  1  0
  5 22  1  1
  5 23  1  0
  6  7  2  0
  6 12  1  0
  6 18  1  0
  7 16  1  0
  7 24  1  0
  8 11  1  0
  8 16  2  0
  8 25  1  0
  9 13  1  0
  9 26  1  1
  9 27  1  0
 10 14  1  0
 10 28  1  6
 10 29  1  0
 10 30  1  0
 11 12  2  0
 11 31  1  0
 12 17  1  0
 13 14  1  0
 13 32  1  1
 13 33  1  0
 14 15  1  0
 14 34  1  6
 15 35  1  1
 15 36  1  0
 16 37  1  0
M  END
$$$$
