LIG(B-307)
     RDKit          3D

 41 43  0  0  0  0  0  0  0  0999 V2000
  187.0230   -0.5655  162.8709 C   0  0  0  0  0  0  0  0  0  0  0  0
  182.2493   -2.1329  159.0129 C   0  0  0  0  0  0  0  0  0  0  0  0
  181.1081   -1.5164  159.5471 C   0  0  0  0  0  0  0  0  0  0  0  0
  179.8582   -1.7608  158.9778 C   0  0  0  0  0  0  0  0  0  0  0  0
  179.6444   -2.6021  157.8836 C   0  0  0  0  0  0  0  0  0  0  0  0
  180.8156   -3.1910  157.3921 C   0  0  0  0  0  0  0  0  0  0  0  0
  182.0735   -2.9820  157.9126 C   0  0  0  0  0  0  0  0  0  0  0  0
  188.2918    1.4937  163.0369 C   0  0  0  0  0  0  0  0  0  0  0  0
  186.8268   -1.7601  161.9696 C   0  0  0  0  0  0  0  0  0  0  0  0
  186.6879    0.8478  164.7864 C   0  0  0  0  0  0  0  0  0  0  0  0
  186.3843   -0.3511  164.0406 C   0  0  0  0  0  0  0  0  0  0  0  0
  178.3084   -2.8773  157.2620 C   0  0  1  0  0  0  0  0  0  0  0  0
  185.8456   -2.7109  159.8601 C   0  0  1  0  0  0  0  0  0  0  0  0
  184.3853   -3.1136  159.7370 C   0  0  1  0  0  0  0  0  0  0  0  0
  183.7308   -0.9142  160.5462 C   0  0  1  0  0  0  0  0  0  0  0  0
  185.1941   -0.5147  160.6423 C   0  0  1  0  0  0  0  0  0  0  0  0
  187.9455    0.3295  162.3999 N   0  0  0  0  0  0  0  0  0  0  0  0
  187.6323    1.6871  164.2198 N   0  0  0  0  0  0  0  0  0  0  0  0
  186.0203   -1.6923  160.8960 N   0  0  0  0  0  0  0  0  0  0  0  0
  183.5422   -1.9309  159.5143 N   0  0  0  0  0  0  0  0  0  0  0  0
  189.1090    2.2834  162.6002 O   0  0  0  0  0  0  0  0  0  0  0  0
  186.1872    1.1729  165.8437 O   0  0  0  0  0  0  0  0  0  0  0  0
  187.4533   -2.7703  162.2806 O   0  0  0  0  0  0  0  0  0  0  0  0
  180.6960   -4.2772  156.0126 Cl  0  0  0  0  0  0  0  0  0  0  0  0
  178.4697   -0.9520  159.7104 Cl  0  0  0  0  0  0  0  0  0  0  0  0
  181.1969   -0.8550  160.3962 H   0  0  0  0  0  0  0  0  0  0  0  0
  182.9273   -3.4744  157.4711 H   0  0  0  0  0  0  0  0  0  0  0  0
  185.6606   -1.0620  164.4113 H   0  0  0  0  0  0  0  0  0  0  0  0
  177.8717   -1.9356  156.8980 H   0  0  0  0  0  0  0  0  0  0  0  0
  178.4326   -3.5734  156.4193 H   0  0  0  0  0  0  0  0  0  0  0  0
  177.6402   -3.3253  158.0123 H   0  0  0  0  0  0  0  0  0  0  0  0
  186.4428   -3.5968  160.1218 H   0  0  0  0  0  0  0  0  0  0  0  0
  186.1905   -2.3077  158.8966 H   0  0  0  0  0  0  0  0  0  0  0  0
  184.2706   -3.8047  158.8890 H   0  0  0  0  0  0  0  0  0  0  0  0
  184.0685   -3.6146  160.6637 H   0  0  0  0  0  0  0  0  0  0  0  0
  183.4017   -1.3173  161.5153 H   0  0  0  0  0  0  0  0  0  0  0  0
  183.1299   -0.0280  160.2945 H   0  0  0  0  0  0  0  0  0  0  0  0
  185.5067   -0.0479  159.6966 H   0  0  0  0  0  0  0  0  0  0  0  0
  185.3218    0.2036  161.4655 H   0  0  0  0  0  0  0  0  0  0  0  0
  188.5304    0.1155  161.6175 H   0  0  0  0  0  0  0  0  0  0  0  0
  187.7732    2.5670  164.6736 H   0  0  0  0  0  0  0  0  0  0  0  0
  1  9  1  0
  1 11  2  0
  1 17  1  0
  2  3  2  0
  2  7  1  0
  2 20  1  0
  3  4  1  0
  3 26  1  0
  4  5  2  0
  4 25  1  0
  5  6  1  0
  5 12  1  0
  6  7  2  0
  6 24  1  0
  7 27  1  0
  8 17  1  0
  8 18  1  0
  8 21  2  0
  9 19  1  0
  9 23  2  0
 10 11  1  0
 10 18  1  0
 10 22  2  0
 11 28  1  0
 12 29  1  6
 12 30  1  0
 12 31  1  0
 13 14  1  0
 13 19  1  0
 13 32  1  1
 13 33  1  0
 14 20  1  0
 14 34  1  6
 14 35  1  0
 15 16  1  0
 15 20  1  0
 15 36  1  1
 15 37  1  0
 16 19  1  0
 16 38  1  6
 16 39  1  0
 17 40  1  0
 18 41  1  0
M  END
$$$$
