LIG(A-306)
     RDKit          3D

 57 60  0  0  1  0  0  0  0  0999 V2000
   14.0883   -1.6282   21.2966 Cl  0  0  0  0  0  0  0  0  0  0  0  0
   12.9523   -0.8275   22.3505 C   0  0  0  0  0  0  0  0  0  0  0  0
   11.6233   -1.2129   22.3288 C   0  0  0  0  0  0  0  0  0  0  0  0
   13.3934    0.1906   23.1585 C   0  0  0  0  0  0  0  0  0  0  0  0
   12.4881    0.8265   23.9875 C   0  0  0  0  0  0  0  0  0  0  0  0
   11.1391    0.4806   23.9858 C   0  0  0  0  0  0  0  0  0  0  0  0
   10.2278    1.2248   24.9346 C   0  0  1  0  0  0  0  0  0  0  0  0
    8.8039    0.9252   24.7303 N   0  0  0  0  0  0  0  0  0  0  0  0
    7.6077    1.9068   25.1349 S   0  0  1  0  0  0  0  0  0  0  0  0
    6.3969    1.3627   24.6242 O   0  0  0  0  0  0  0  0  0  0  0  0
    7.7552    2.1770   26.5229 O   0  0  0  0  0  0  0  0  0  0  0  0
    7.9699    3.2410   24.3204 N   0  0  0  0  0  0  0  0  0  0  0  0
    8.5018    4.3786   25.0767 C   0  0  1  0  0  0  0  0  0  0  0  0
    7.3395    3.4679   23.0025 C   0  0  1  0  0  0  0  0  0  0  0  0
    6.1812    4.4366   23.0826 C   0  0  0  0  0  0  0  0  0  0  0  0
    5.3496    4.4490   23.9519 O   0  0  0  0  0  0  0  0  0  0  0  0
    6.2349    5.3227   22.0837 O   0  0  0  0  0  0  0  0  0  0  0  0
    5.4520    6.5312   22.2389 C   0  0  1  0  0  0  0  0  0  0  0  0
   10.6964   -0.5387   23.1268 C   0  0  0  0  0  0  0  0  0  0  0  0
    9.2127   -0.8354   23.0070 C   0  0  1  0  0  0  0  0  0  0  0  0
    8.4853   -0.4479   24.2937 C   0  0  2  0  0  0  0  0  0  0  0  0
    8.6224   -0.0641   21.8203 C   0  0  0  0  0  0  0  0  0  0  0  0
    9.1354    0.9719   21.3932 O   0  0  0  0  0  0  0  0  0  0  0  0
    7.4919   -0.6108   21.2913 N   0  0  0  0  0  0  0  0  0  0  0  0
    6.7305   -0.1464   20.1836 C   0  0  0  0  0  0  0  0  0  0  0  0
    5.5663    0.6521   20.4261 C   0  0  0  0  0  0  0  0  0  0  0  0
    5.0103    0.8666   21.7136 C   0  0  0  0  0  0  0  0  0  0  0  0
    3.8846    1.6243   21.8772 C   0  0  0  0  0  0  0  0  0  0  0  0
    3.2651    2.2179   20.7839 C   0  0  0  0  0  0  0  0  0  0  0  0
    3.7619    2.0432   19.5232 C   0  0  0  0  0  0  0  0  0  0  0  0
    4.9119    1.2465   19.3065 C   0  0  0  0  0  0  0  0  0  0  0  0
    5.4334    0.9773   18.0158 C   0  0  0  0  0  0  0  0  0  0  0  0
    6.4842    0.2036   17.7859 N   0  0  0  0  0  0  0  0  0  0  0  0
    7.1023   -0.3346   18.8490 C   0  0  0  0  0  0  0  0  0  0  0  0
   11.3049   -2.0301   21.6985 H   0  0  0  0  0  0  0  0  0  0  0  0
   14.4310    0.4902   23.1468 H   0  0  0  0  0  0  0  0  0  0  0  0
   12.8339    1.6067   24.6495 H   0  0  0  0  0  0  0  0  0  0  0  0
   10.4978    0.9501   25.9650 H   0  0  0  0  0  0  0  0  0  0  0  0
   10.3812    2.3045   24.7908 H   0  0  0  0  0  0  0  0  0  0  0  0
    8.7017    5.2147   24.3903 H   0  0  0  0  0  0  0  0  0  0  0  0
    7.7665    4.6925   25.8322 H   0  0  0  0  0  0  0  0  0  0  0  0
    9.4364    4.0824   25.5755 H   0  0  0  0  0  0  0  0  0  0  0  0
    8.0947    3.8749   22.3140 H   0  0  0  0  0  0  0  0  0  0  0  0
    6.9710    2.5063   22.6157 H   0  0  0  0  0  0  0  0  0  0  0  0
    5.5837    7.1703   21.3533 H   0  0  0  0  0  0  0  0  0  0  0  0
    4.3893    6.2683   22.3463 H   0  0  0  0  0  0  0  0  0  0  0  0
    5.7881    7.0730   23.1353 H   0  0  0  0  0  0  0  0  0  0  0  0
    9.0762   -1.9128   22.8322 H   0  0  0  0  0  0  0  0  0  0  0  0
    7.4013   -0.5211   24.1220 H   0  0  0  0  0  0  0  0  0  0  0  0
    8.7786   -1.1484   25.0895 H   0  0  0  0  0  0  0  0  0  0  0  0
    7.1564   -1.4407   21.7370 H   0  0  0  0  0  0  0  0  0  0  0  0
    5.4839    0.4244   22.5777 H   0  0  0  0  0  0  0  0  0  0  0  0
    3.4725    1.7631   22.8659 H   0  0  0  0  0  0  0  0  0  0  0  0
    2.3829    2.8228   20.9323 H   0  0  0  0  0  0  0  0  0  0  0  0
    3.2731    2.5169   18.6847 H   0  0  0  0  0  0  0  0  0  0  0  0
    4.9435    1.4311   17.1671 H   0  0  0  0  0  0  0  0  0  0  0  0
    7.9578   -0.9654   18.6575 H   0  0  0  0  0  0  0  0  0  0  0  0
  1  2  1  0
  2  3  2  0
  2  4  1  0
  3 19  1  0
  3 35  1  0
  4  5  2  0
  4 36  1  0
  5  6  1  0
  5 37  1  0
  6  7  1  0
  6 19  2  0
  7  8  1  0
  7 38  1  1
  7 39  1  0
  8  9  1  0
  8 21  1  0
  9 10  2  0
  9 11  2  0
  9 12  1  6
 12 13  1  0
 12 14  1  0
 13 40  1  6
 13 41  1  0
 13 42  1  0
 14 15  1  0
 14 43  1  6
 14 44  1  0
 15 16  2  0
 15 17  1  0
 17 18  1  0
 18 45  1  6
 18 46  1  0
 18 47  1  0
 19 20  1  0
 20 21  1  0
 20 22  1  0
 20 48  1  6
 21 49  1  6
 21 50  1  0
 22 23  2  0
 22 24  1  0
 24 25  1  0
 24 51  1  0
 25 26  2  0
 25 34  1  0
 26 27  1  0
 26 31  1  0
 27 28  2  0
 27 52  1  0
 28 29  1  0
 28 53  1  0
 29 30  2  0
 29 54  1  0
 30 31  1  0
 30 55  1  0
 31 32  2  0
 32 33  1  0
 32 56  1  0
 33 34  2  0
 34 57  1  0
M  END
$$$$
