LIG(A-306)
     RDKit          3D

 57 60  0  0  1  0  0  0  0  0999 V2000
   14.0987   -1.5402   21.3263 Cl  0  0  0  0  0  0  0  0  0  0  0  0
   12.9292   -0.7467   22.3443 C   0  0  0  0  0  0  0  0  0  0  0  0
   11.6107   -1.1578   22.2984 C   0  0  0  0  0  0  0  0  0  0  0  0
   13.3296    0.3023   23.1406 C   0  0  0  0  0  0  0  0  0  0  0  0
   12.3880    0.9517   23.9176 C   0  0  0  0  0  0  0  0  0  0  0  0
   11.0438    0.5818   23.8806 C   0  0  0  0  0  0  0  0  0  0  0  0
   10.0415    1.3355   24.7301 C   0  0  1  0  0  0  0  0  0  0  0  0
    8.6550    1.1086   24.2926 N   0  0  2  0  0  0  0  0  0  0  0  0
    7.6537    1.7934   25.1036 C   0  0  1  0  0  0  0  0  0  0  0  0
    7.1508    3.0942   24.4966 C   0  0  0  0  0  0  0  0  0  0  0  0
    6.3895    3.8192   25.1305 O   0  0  0  0  0  0  0  0  0  0  0  0
    7.5563    3.3924   23.2677 N   0  0  0  0  0  0  0  0  0  0  0  0
    7.0328    4.5282   22.5315 C   0  0  1  0  0  0  0  0  0  0  0  0
   10.6487   -0.4748   23.0455 C   0  0  0  0  0  0  0  0  0  0  0  0
    9.1737   -0.8002   22.8851 C   0  0  1  0  0  0  0  0  0  0  0  0
    8.3944   -0.3186   24.1077 C   0  0  2  0  0  0  0  0  0  0  0  0
    8.6623   -0.0590   21.6459 C   0  0  0  0  0  0  0  0  0  0  0  0
    9.1696    0.9929   21.2571 O   0  0  0  0  0  0  0  0  0  0  0  0
    7.5634   -0.6122   21.0688 N   0  0  0  0  0  0  0  0  0  0  0  0
    6.8288   -0.1331   19.9540 C   0  0  0  0  0  0  0  0  0  0  0  0
    5.6867    0.6925   20.1931 C   0  0  0  0  0  0  0  0  0  0  0  0
    5.0051    1.2438   19.0678 C   0  0  0  0  0  0  0  0  0  0  0  0
    5.4983    0.9245   17.7795 C   0  0  0  0  0  0  0  0  0  0  0  0
    6.5530    0.1506   17.5558 N   0  0  0  0  0  0  0  0  0  0  0  0
    7.1859   -0.3580   18.6230 C   0  0  0  0  0  0  0  0  0  0  0  0
    5.2237    1.0312   21.4881 C   0  0  0  0  0  0  0  0  0  0  0  0
    4.1586    1.8636   21.6633 C   0  0  0  0  0  0  0  0  0  0  0  0
    3.4981    2.3862   20.5597 C   0  0  0  0  0  0  0  0  0  0  0  0
    3.8979    2.0973   19.2834 C   0  0  0  0  0  0  0  0  0  0  0  0
    2.0990    3.4392   20.8057 S   0  0  2  0  0  0  0  0  0  0  0  0
    1.2290    2.8103   21.7586 O   0  0  0  0  0  0  0  0  0  0  0  0
    1.5607    3.7846   19.5206 O   0  0  0  0  0  0  0  0  0  0  0  0
    2.7708    4.8866   21.5327 C   0  0  1  0  0  0  0  0  0  0  0  0
   11.3259   -2.0022   21.6883 H   0  0  0  0  0  0  0  0  0  0  0  0
   14.3637    0.6134   23.1582 H   0  0  0  0  0  0  0  0  0  0  0  0
   12.6988    1.7592   24.5640 H   0  0  0  0  0  0  0  0  0  0  0  0
   10.1418    1.0031   25.7739 H   0  0  0  0  0  0  0  0  0  0  0  0
   10.2611    2.4114   24.6652 H   0  0  0  0  0  0  0  0  0  0  0  0
    8.5905    1.5156   23.3815 H   0  0  0  0  0  0  0  0  0  0  0  0
    6.7951    1.1186   25.2358 H   0  0  0  0  0  0  0  0  0  0  0  0
    8.0979    2.0182   26.0845 H   0  0  0  0  0  0  0  0  0  0  0  0
    8.2470    2.8136   22.8342 H   0  0  0  0  0  0  0  0  0  0  0  0
    7.5120    4.5772   21.5426 H   0  0  0  0  0  0  0  0  0  0  0  0
    5.9457    4.4147   22.4069 H   0  0  0  0  0  0  0  0  0  0  0  0
    7.2435    5.4538   23.0872 H   0  0  0  0  0  0  0  0  0  0  0  0
    9.0377   -1.8841   22.7560 H   0  0  0  0  0  0  0  0  0  0  0  0
    7.3182   -0.4817   23.9493 H   0  0  0  0  0  0  0  0  0  0  0  0
    8.7222   -0.8739   24.9988 H   0  0  0  0  0  0  0  0  0  0  0  0
    7.2320   -1.4612   21.4806 H   0  0  0  0  0  0  0  0  0  0  0  0
    4.9834    1.3371   16.9244 H   0  0  0  0  0  0  0  0  0  0  0  0
    8.0402   -0.9923   18.4383 H   0  0  0  0  0  0  0  0  0  0  0  0
    5.7241    0.6221   22.3533 H   0  0  0  0  0  0  0  0  0  0  0  0
    3.8287    2.1163   22.6601 H   0  0  0  0  0  0  0  0  0  0  0  0
    3.3690    2.5203   18.4421 H   0  0  0  0  0  0  0  0  0  0  0  0
    1.9642    5.6095   21.7246 H   0  0  0  0  0  0  0  0  0  0  0  0
    3.2627    4.6259   22.4814 H   0  0  0  0  0  0  0  0  0  0  0  0
    3.5074    5.3326   20.8481 H   0  0  0  0  0  0  0  0  0  0  0  0
  1  2  1  0
  2  3  2  0
  2  4  1  0
  3 14  1  0
  3 34  1  0
  4  5  2  0
  4 35  1  0
  5  6  1  0
  5 36  1  0
  6  7  1  0
  6 14  2  0
  7  8  1  0
  7 37  1  1
  7 38  1  0
  8  9  1  0
  8 16  1  0
  8 39  1  6
  9 10  1  0
  9 40  1  1
  9 41  1  0
 10 11  2  0
 10 12  1  0
 12 13  1  0
 12 42  1  0
 13 43  1  6
 13 44  1  0
 13 45  1  0
 14 15  1  0
 15 16  1  0
 15 17  1  0
 15 46  1  6
 16 47  1  6
 16 48  1  0
 17 18  2  0
 17 19  1  0
 19 20  1  0
 19 49  1  0
 20 21  2  0
 20 25  1  0
 21 22  1  0
 21 26  1  0
 22 23  2  0
 22 29  1  0
 23 24  1  0
 23 50  1  0
 24 25  2  0
 25 51  1  0
 26 27  2  0
 26 52  1  0
 27 28  1  0
 27 53  1  0
 28 29  2  0
 30 28  1  6
 29 54  1  0
 30 31  2  0
 30 32  2  0
 30 33  1  0
 33 55  1  1
 33 56  1  0
 33 57  1  0
M  CHG  1   8   1
M  END
$$$$
