LIG(B-307)
     RDKit          3D

 72 74  0  0  1  0  0  0  0  0999 V2000
  -58.5102    1.0761  -18.0860 C   0  0  0  0  0  0  0  0  0  0  0  0
  -59.9695   -3.4771  -19.7908 C   0  0  1  0  0  0  0  0  0  0  0  0
  -61.3521   -1.1485  -21.9751 C   0  0  0  0  0  0  0  0  0  0  0  0
  -62.1470    1.7185  -22.4521 C   0  0  0  0  0  0  0  0  0  0  0  0
  -64.1685    4.2682  -23.2479 C   0  0  0  0  0  0  0  0  0  0  0  0
  -57.7025    0.5050  -20.2953 C   0  0  1  0  0  0  0  0  0  0  0  0
  -57.0203    1.7840  -19.7714 C   0  0  1  0  0  0  0  0  0  0  0  0
  -63.4811    0.6029  -24.3059 C   0  0  1  0  0  0  0  0  0  0  0  0
  -58.8957    0.2806  -19.3390 C   0  0  1  0  0  0  0  0  0  0  0  0
  -62.7620   -0.6305  -22.2832 C   0  0  2  0  0  0  0  0  0  0  0  0
  -63.9010   -0.8437  -24.4624 C   0  0  1  0  0  0  0  0  0  0  0  0
  -63.4683   -1.6101  -23.2265 C   0  0  2  0  0  0  0  0  0  0  0  0
  -64.9485   -1.4275  -23.5326 C   0  0  2  0  0  0  0  0  0  0  0  0
  -65.6569   -2.6667  -24.0567 C   0  0  1  0  0  0  0  0  0  0  0  0
  -65.8469   -0.5522  -22.6755 C   0  0  1  0  0  0  0  0  0  0  0  0
  -59.6783    2.4707  -23.8905 C   0  0  1  0  0  0  0  0  0  0  0  0
  -60.0670    4.2224  -22.1266 C   0  0  1  0  0  0  0  0  0  0  0  0
  -60.6485    4.6924  -24.5254 C   0  0  1  0  0  0  0  0  0  0  0  0
  -59.2868   -1.1566  -18.9806 C   0  0  1  0  0  0  0  0  0  0  0  0
  -59.7697   -2.0101  -20.1697 C   0  0  2  0  0  0  0  0  0  0  0  0
  -62.0620    3.0231  -23.2803 C   0  0  2  0  0  0  0  0  0  0  0  0
  -65.0587    5.2412  -22.4446 C   0  0  1  0  0  0  0  0  0  0  0  0
  -60.6126    3.6056  -23.4305 C   0  0  1  0  0  0  0  0  0  0  0  0
  -59.0741   -4.3379  -20.0939 N   0  0  1  0  0  0  0  0  0  0  0  0
  -57.3829    1.7709  -18.3539 N   0  0  0  0  0  0  0  0  0  0  0  0
  -62.7275    0.6446  -23.0300 N   0  0  0  0  0  0  0  0  0  0  0  0
  -61.0703   -1.5395  -20.7079 N   0  0  0  0  0  0  0  0  0  0  0  0
  -62.9860    3.9902  -22.6889 N   0  0  0  0  0  0  0  0  0  0  0  0
  -59.1333    1.0896  -17.0147 O   0  0  0  0  0  0  0  0  0  0  0  0
  -60.4752   -1.1851  -22.8601 O   0  0  0  0  0  0  0  0  0  0  0  0
  -61.7275    1.6884  -21.2813 O   0  0  0  0  0  0  0  0  0  0  0  0
  -64.5992    3.8321  -24.3177 O   0  0  0  0  0  0  0  0  0  0  0  0
  -64.5904    6.5078  -22.4399 F   0  0  0  0  0  0  0  0  0  0  0  0
  -66.3018    5.2593  -22.9622 F   0  0  0  0  0  0  0  0  0  0  0  0
  -65.1468    4.8263  -21.1708 F   0  0  0  0  0  0  0  0  0  0  0  0
  -60.0872   -3.5108  -18.6976 H   0  0  0  0  0  0  0  0  0  0  0  0
  -60.9033   -3.8059  -20.2703 H   0  0  0  0  0  0  0  0  0  0  0  0
  -58.0537    0.6473  -21.3279 H   0  0  0  0  0  0  0  0  0  0  0  0
  -57.0091   -0.3481  -20.2580 H   0  0  0  0  0  0  0  0  0  0  0  0
  -55.9293    1.7369  -19.9043 H   0  0  0  0  0  0  0  0  0  0  0  0
  -57.4126    2.6799  -20.2750 H   0  0  0  0  0  0  0  0  0  0  0  0
  -62.8401    0.9129  -25.1444 H   0  0  0  0  0  0  0  0  0  0  0  0
  -64.3628    1.2589  -24.2564 H   0  0  0  0  0  0  0  0  0  0  0  0
  -59.7758    0.7659  -19.7862 H   0  0  0  0  0  0  0  0  0  0  0  0
  -63.3365   -0.5229  -21.3514 H   0  0  0  0  0  0  0  0  0  0  0  0
  -63.7571   -1.3211  -25.4429 H   0  0  0  0  0  0  0  0  0  0  0  0
  -63.0284   -2.6096  -23.3586 H   0  0  0  0  0  0  0  0  0  0  0  0
  -66.7149   -2.4324  -24.2459 H   0  0  0  0  0  0  0  0  0  0  0  0
  -65.1805   -2.9928  -24.9931 H   0  0  0  0  0  0  0  0  0  0  0  0
  -65.5875   -3.4718  -23.3103 H   0  0  0  0  0  0  0  0  0  0  0  0
  -66.8696   -0.5679  -23.0805 H   0  0  0  0  0  0  0  0  0  0  0  0
  -65.8552   -0.9345  -21.6441 H   0  0  0  0  0  0  0  0  0  0  0  0
  -65.4664    0.4799  -22.6810 H   0  0  0  0  0  0  0  0  0  0  0  0
  -60.0664    2.0299  -24.8205 H   0  0  0  0  0  0  0  0  0  0  0  0
  -58.6709    2.8749  -24.0689 H   0  0  0  0  0  0  0  0  0  0  0  0
  -59.6300    1.6968  -23.1103 H   0  0  0  0  0  0  0  0  0  0  0  0
  -60.7334    5.0331  -21.7969 H   0  0  0  0  0  0  0  0  0  0  0  0
  -60.0186    3.4479  -21.3470 H   0  0  0  0  0  0  0  0  0  0  0  0
  -59.0595    4.6260  -22.3056 H   0  0  0  0  0  0  0  0  0  0  0  0
  -61.0368    4.2600  -25.4593 H   0  0  0  0  0  0  0  0  0  0  0  0
  -61.3025    5.5160  -24.2031 H   0  0  0  0  0  0  0  0  0  0  0  0
  -59.6315    5.0762  -24.6943 H   0  0  0  0  0  0  0  0  0  0  0  0
  -58.4085   -1.6504  -18.5392 H   0  0  0  0  0  0  0  0  0  0  0  0
  -60.0966   -1.1157  -18.2373 H   0  0  0  0  0  0  0  0  0  0  0  0
  -59.0115   -1.9556  -20.9647 H   0  0  0  0  0  0  0  0  0  0  0  0
  -62.4172    2.7863  -24.2940 H   0  0  0  0  0  0  0  0  0  0  0  0
  -59.5039   -5.2286  -20.2421 H   0  0  0  0  0  0  0  0  0  0  0  0
  -58.6053   -4.0510  -20.9293 H   0  0  0  0  0  0  0  0  0  0  0  0
  -58.4123   -4.4072  -19.3474 H   0  0  0  0  0  0  0  0  0  0  0  0
  -56.8459    2.2335  -17.6485 H   0  0  0  0  0  0  0  0  0  0  0  0
  -61.8296   -1.5068  -20.0580 H   0  0  0  0  0  0  0  0  0  0  0  0
  -62.7263    4.4564  -21.8432 H   0  0  0  0  0  0  0  0  0  0  0  0
  1  9  1  0
  1 25  1  0
  1 29  2  0
  2 20  1  0
  2 24  1  0
  2 36  1  1
  2 37  1  0
  3 10  1  0
  3 27  1  0
  3 30  2  0
  4 21  1  0
  4 26  1  0
  4 31  2  0
  5 22  1  0
  5 28  1  0
  5 32  2  0
  6  7  1  0
  6  9  1  0
  6 38  1  6
  6 39  1  0
  7 25  1  0
  7 40  1  1
  7 41  1  0
  8 11  1  0
  8 26  1  0
  8 42  1  6
  8 43  1  0
  9 19  1  0
  9 44  1  6
 10 12  1  0
 10 26  1  0
 10 45  1  1
 11 12  1  0
 13 11  1  6
 11 46  1  6
 12 13  1  0
 12 47  1  6
 13 14  1  0
 13 15  1  0
 14 48  1  6
 14 49  1  0
 14 50  1  0
 15 51  1  6
 15 52  1  0
 15 53  1  0
 16 23  1  0
 16 54  1  6
 16 55  1  0
 16 56  1  0
 17 23  1  0
 17 57  1  1
 17 58  1  0
 17 59  1  0
 18 23  1  0
 18 60  1  6
 18 61  1  0
 18 62  1  0
 19 20  1  0
 19 63  1  1
 19 64  1  0
 20 27  1  0
 20 65  1  6
 23 21  1  1
 21 28  1  0
 21 66  1  6
 22 33  1  1
 22 34  1  0
 22 35  1  0
 24 67  1  6
 24 68  1  0
 24 69  1  0
 25 70  1  0
 27 71  1  0
 28 72  1  0
M  CHG  1  24   1
M  END
$$$$
