LIG(B-307)
     RDKit          3D

 41 43  0  0  0  0  0  0  0  0999 V2000
  186.6247   -0.4826  164.1081 C   0  0  0  0  0  0  0  0  0  0  0  0
  186.2160   -2.9930  160.0871 C   0  0  1  0  0  0  0  0  0  0  0  0
  182.6910   -2.3472  159.1145 C   0  0  0  0  0  0  0  0  0  0  0  0
  185.6967   -0.5979  160.6522 C   0  0  1  0  0  0  0  0  0  0  0  0
  184.2469   -0.7922  160.1941 C   0  0  1  0  0  0  0  0  0  0  0  0
  185.0674   -2.8038  159.1236 C   0  0  1  0  0  0  0  0  0  0  0  0
  187.3346   -0.6783  162.9691 C   0  0  0  0  0  0  0  0  0  0  0  0
  182.5182   -3.3016  158.0949 C   0  0  0  0  0  0  0  0  0  0  0  0
  181.2887   -3.4712  157.4597 C   0  0  0  0  0  0  0  0  0  0  0  0
  180.1950   -2.6958  157.8243 C   0  0  0  0  0  0  0  0  0  0  0  0
  180.3288   -1.7307  158.8399 C   0  0  0  0  0  0  0  0  0  0  0  0
  181.5663   -1.5661  159.4711 C   0  0  0  0  0  0  0  0  0  0  0  0
  188.5597    1.4070  163.1985 C   0  0  0  0  0  0  0  0  0  0  0  0
  187.1906   -1.8874  162.0815 C   0  0  0  0  0  0  0  0  0  0  0  0
  186.8634    0.7141  164.8904 C   0  0  0  0  0  0  0  0  0  0  0  0
  179.1599   -0.8702  159.2701 C   0  0  1  0  0  0  0  0  0  0  0  0
  178.6683   -0.1322  158.2497 F   0  0  0  0  0  0  0  0  0  0  0  0
  178.1375   -1.6054  159.7758 F   0  0  0  0  0  0  0  0  0  0  0  0
  179.4809    0.0124  160.2387 F   0  0  0  0  0  0  0  0  0  0  0  0
  188.2673    0.2329  162.5292 N   0  0  0  0  0  0  0  0  0  0  0  0
  187.8350    1.5849  164.3717 N   0  0  0  0  0  0  0  0  0  0  0  0
  186.4113   -1.8435  160.9859 N   0  0  0  0  0  0  0  0  0  0  0  0
  183.9245   -2.1634  159.7735 N   0  0  0  0  0  0  0  0  0  0  0  0
  189.3920    2.2130  162.7828 O   0  0  0  0  0  0  0  0  0  0  0  0
  186.2678    0.9866  165.9313 O   0  0  0  0  0  0  0  0  0  0  0  0
  187.8211   -2.8993  162.4346 O   0  0  0  0  0  0  0  0  0  0  0  0
  178.6653   -2.9718  156.9761 Cl  0  0  0  0  0  0  0  0  0  0  0  0
  185.8917   -1.2085  164.4278 H   0  0  0  0  0  0  0  0  0  0  0  0
  186.0167   -3.8854  160.6984 H   0  0  0  0  0  0  0  0  0  0  0  0
  187.1382   -3.1443  159.5070 H   0  0  0  0  0  0  0  0  0  0  0  0
  186.2465   -0.0939  159.8438 H   0  0  0  0  0  0  0  0  0  0  0  0
  185.6901    0.0430  161.5462 H   0  0  0  0  0  0  0  0  0  0  0  0
  183.5828   -0.5225  161.0284 H   0  0  0  0  0  0  0  0  0  0  0  0
  184.0608   -0.1185  159.3447 H   0  0  0  0  0  0  0  0  0  0  0  0
  185.4026   -2.1734  158.2868 H   0  0  0  0  0  0  0  0  0  0  0  0
  184.7564   -3.7870  158.7404 H   0  0  0  0  0  0  0  0  0  0  0  0
  183.3556   -3.9156  157.7981 H   0  0  0  0  0  0  0  0  0  0  0  0
  181.1858   -4.2103  156.6790 H   0  0  0  0  0  0  0  0  0  0  0  0
  181.6657   -0.8245  160.2499 H   0  0  0  0  0  0  0  0  0  0  0  0
  188.8800    0.0326  161.7646 H   0  0  0  0  0  0  0  0  0  0  0  0
  188.0439    2.4019  164.9091 H   0  0  0  0  0  0  0  0  0  0  0  0
  1  7  2  0
  1 15  1  0
  1 28  1  0
  2  6  1  0
  2 22  1  0
  2 29  1  1
  2 30  1  0
  3  8  2  0
  3 12  1  0
  3 23  1  0
  4  5  1  0
  4 22  1  0
  4 31  1  6
  4 32  1  0
  5 23  1  0
  5 33  1  1
  5 34  1  0
  6 23  1  0
  6 35  1  6
  6 36  1  0
  7 14  1  0
  7 20  1  0
  8  9  1  0
  8 37  1  0
  9 10  2  0
  9 38  1  0
 10 11  1  0
 10 27  1  0
 11 12  2  0
 11 16  1  0
 12 39  1  0
 13 20  1  0
 13 21  1  0
 13 24  2  0
 14 22  1  0
 14 26  2  0
 15 21  1  0
 15 25  2  0
 16 17  1  6
 16 18  1  0
 16 19  1  0
 20 40  1  0
 21 41  1  0
M  END
$$$$
