LIG(A-305)
     RDKit          3D

 37 39  0  0  0  0  0  0  0  0999 V2000
    9.2351    1.2384   21.0870 O   0  0  0  0  0  0  0  0  0  0  0  0
    9.2222    0.0924   21.4930 C   0  0  0  0  0  0  0  0  0  0  0  0
    9.9612   -0.3035   22.5490 N   0  0  0  0  0  0  0  0  0  0  0  0
   10.0403   -1.6825   23.0491 C   0  0  1  0  0  0  0  0  0  0  0  0
   11.4873   -2.1694   23.0641 C   0  0  1  0  0  0  0  0  0  0  0  0
   10.8042    0.6426   23.2930 C   0  0  1  0  0  0  0  0  0  0  0  0
   12.2622    0.1807   23.3100 C   0  0  1  0  0  0  0  0  0  0  0  0
   12.3973   -1.2363   23.8500 C   0  0  2  0  0  0  0  0  0  0  0  0
   13.8423   -1.7142   23.8480 C   0  0  1  0  0  0  0  0  0  0  0  0
    8.3552   -0.9626   20.8081 C   0  0  1  0  0  0  0  0  0  0  0  0
    7.4862   -0.3527   19.8340 N   0  0  0  0  0  0  0  0  0  0  0  0
    6.3672    0.3992   20.0180 C   0  0  0  0  0  0  0  0  0  0  0  0
    5.9841    0.7762   18.7370 C   0  0  0  0  0  0  0  0  0  0  0  0
    6.8752    0.2322   17.8390 N   0  0  0  0  0  0  0  0  0  0  0  0
    7.7642   -0.4427   18.5050 N   0  0  0  0  0  0  0  0  0  0  0  0
    5.6382    0.7772   21.1460 C   0  0  0  0  0  0  0  0  0  0  0  0
    4.4881    1.5352   20.9410 C   0  0  0  0  0  0  0  0  0  0  0  0
    4.1061    1.9311   19.6600 C   0  0  0  0  0  0  0  0  0  0  0  0
    4.8521    1.5611   18.5460 C   0  0  0  0  0  0  0  0  0  0  0  0
    9.6363   -1.7194   24.0716 H   0  0  0  0  0  0  0  0  0  0  0  0
    9.4455   -2.3380   22.3959 H   0  0  0  0  0  0  0  0  0  0  0  0
   11.5208   -3.1681   23.5241 H   0  0  0  0  0  0  0  0  0  0  0  0
   11.8517   -2.2306   22.0280 H   0  0  0  0  0  0  0  0  0  0  0  0
   10.7454    1.6309   22.8135 H   0  0  0  0  0  0  0  0  0  0  0  0
   10.4375    0.7146   24.3276 H   0  0  0  0  0  0  0  0  0  0  0  0
   12.6576    0.2104   22.2840 H   0  0  0  0  0  0  0  0  0  0  0  0
   12.8448    0.8622   23.9474 H   0  0  0  0  0  0  0  0  0  0  0  0
   12.0489   -1.2306   24.8933 H   0  0  0  0  0  0  0  0  0  0  0  0
   13.8907   -2.7389   24.2451 H   0  0  0  0  0  0  0  0  0  0  0  0
   14.2313   -1.7010   22.8192 H   0  0  0  0  0  0  0  0  0  0  0  0
   14.4496   -1.0479   24.4782 H   0  0  0  0  0  0  0  0  0  0  0  0
    9.0056   -1.6932   20.3047 H   0  0  0  0  0  0  0  0  0  0  0  0
    7.7448   -1.4758   21.5657 H   0  0  0  0  0  0  0  0  0  0  0  0
    5.9534    0.4932   22.1391 H   0  0  0  0  0  0  0  0  0  0  0  0
    3.8822    1.8210   21.7881 H   0  0  0  0  0  0  0  0  0  0  0  0
    3.2188    2.5333   19.5310 H   0  0  0  0  0  0  0  0  0  0  0  0
    4.5590    1.8762   17.5554 H   0  0  0  0  0  0  0  0  0  0  0  0
  1  2  2  0
  2  3  1  0
  2 10  1  0
  3  4  1  0
  3  6  1  0
  4  5  1  0
  4 20  1  1
  4 21  1  0
  5  8  1  0
  5 22  1  1
  5 23  1  0
  6  7  1  0
  6 24  1  6
  6 25  1  0
  7  8  1  0
  7 26  1  6
  7 27  1  0
  8  9  1  0
  8 28  1  1
  9 29  1  1
  9 30  1  0
  9 31  1  0
 10 11  1  0
 10 32  1  6
 10 33  1  0
 11 12  1  0
 11 15  1  0
 12 13  2  0
 12 16  1  0
 13 14  1  0
 13 19  1  0
 14 15  2  0
 16 17  2  0
 16 34  1  0
 17 18  1  0
 17 35  1  0
 18 19  2  0
 18 36  1  0
 19 37  1  0
M  END
$$$$
