LIG(A-305)
     RDKit          3D

 34 35  0  0  0  0  0  0  0  0999 V2000
   23.1257  -17.6031   24.2221 C   0  0  1  0  0  0  0  0  0  0  0  0
   22.0285  -19.5470   24.0692 C   0  0  1  0  0  0  0  0  0  0  0  0
   22.1384  -21.0390   23.7202 C   0  0  1  0  0  0  0  0  0  0  0  0
   24.0293  -20.5592   22.4231 C   0  0  1  0  0  0  0  0  0  0  0  0
   23.8455  -19.0721   22.6901 C   0  0  1  0  0  0  0  0  0  0  0  0
   22.2681  -22.1930   21.4692 C   0  0  0  0  0  0  0  0  0  0  0  0
   22.4158  -23.3050   19.1972 C   0  0  0  0  0  0  0  0  0  0  0  0
   22.0547  -24.6070   19.5022 C   0  0  0  0  0  0  0  0  0  0  0  0
   21.5605  -25.4399   18.5073 C   0  0  0  0  0  0  0  0  0  0  0  0
   21.4305  -24.9749   17.2053 C   0  0  0  0  0  0  0  0  0  0  0  0
   21.7966  -23.6680   16.8972 C   0  0  0  0  0  0  0  0  0  0  0  0
   22.2927  -22.8370   17.8932 C   0  0  0  0  0  0  0  0  0  0  0  0
   23.2306  -18.8351   23.9251 N   0  0  1  0  0  0  0  0  0  0  0  0
   22.8032  -21.2910   22.4872 N   0  0  0  0  0  0  0  0  0  0  0  0
   22.9529  -22.4181   20.2132 N   0  0  0  0  0  0  0  0  0  0  0  0
   21.2350  -22.7369   21.6593 O   0  0  0  0  0  0  0  0  0  0  0  0
   24.0992  -17.1088   24.0874 H   0  0  0  0  0  0  0  0  0  0  0  0
   22.3804  -17.1300   23.5659 H   0  0  0  0  0  0  0  0  0  0  0  0
   22.8065  -17.5045   25.2702 H   0  0  0  0  0  0  0  0  0  0  0  0
   21.2760  -19.0919   23.4084 H   0  0  0  0  0  0  0  0  0  0  0  0
   21.6986  -19.4600   25.1149 H   0  0  0  0  0  0  0  0  0  0  0  0
   22.6945  -21.5435   24.5241 H   0  0  0  0  0  0  0  0  0  0  0  0
   21.1227  -21.4569   23.6588 H   0  0  0  0  0  0  0  0  0  0  0  0
   24.4611  -20.6848   21.4192 H   0  0  0  0  0  0  0  0  0  0  0  0
   24.7217  -20.9677   23.1738 H   0  0  0  0  0  0  0  0  0  0  0  0
   24.8319  -18.5854   22.6848 H   0  0  0  0  0  0  0  0  0  0  0  0
   23.2203  -18.6425   21.8934 H   0  0  0  0  0  0  0  0  0  0  0  0
   22.1573  -24.9739   20.5128 H   0  0  0  0  0  0  0  0  0  0  0  0
   21.2760  -26.4538   18.7470 H   0  0  0  0  0  0  0  0  0  0  0  0
   21.0462  -25.6257   16.4337 H   0  0  0  0  0  0  0  0  0  0  0  0
   21.6951  -23.3011   15.8865 H   0  0  0  0  0  0  0  0  0  0  0  0
   22.5838  -21.8247   17.6546 H   0  0  0  0  0  0  0  0  0  0  0  0
   23.8485  -19.2370   24.6009 H   0  0  0  0  0  0  0  0  0  0  0  0
   23.8196  -21.9497   20.0410 H   0  0  0  0  0  0  0  0  0  0  0  0
  1 13  1  0
  1 17  1  1
  1 18  1  0
  1 19  1  0
  2  3  1  0
  2 13  1  0
  2 20  1  6
  2 21  1  0
  3 14  1  0
  3 22  1  1
  3 23  1  0
  4  5  1  0
  4 14  1  0
  4 24  1  6
  4 25  1  0
  5 13  1  0
  5 26  1  1
  5 27  1  0
  6 14  1  0
  6 15  1  0
  6 16  2  0
  7  8  2  0
  7 12  1  0
  7 15  1  0
  8  9  1  0
  8 28  1  0
  9 10  2  0
  9 29  1  0
 10 11  1  0
 10 30  1  0
 11 12  2  0
 11 31  1  0
 12 32  1  0
 13 33  1  1
 15 34  1  0
M  CHG  1  13   1
M  END
$$$$
