LIG(A-307)
     RDKit          3D

 48 51  0  0  1  0  0  0  0  0999 V2000
  -14.2433    6.1377  -22.0886 O   0  0  0  0  0  0  0  0  0  0  0  0
  -14.2166    4.9372  -22.3315 C   0  0  0  0  0  0  0  0  0  0  0  0
  -13.4360    3.7390  -21.8118 C   0  0  1  0  0  0  0  0  0  0  0  0
  -14.9153    4.1808  -23.1983 N   0  0  0  0  0  0  0  0  0  0  0  0
  -14.4565    2.9070  -22.5967 C   0  0  1  0  0  0  0  0  0  0  0  0
  -13.7007    2.0981  -23.5152 O   0  0  0  0  0  0  0  0  0  0  0  0
  -13.4043    0.8275  -23.0778 C   0  0  0  0  0  0  0  0  0  0  0  0
  -14.4044   -0.0474  -22.6806 C   0  0  0  0  0  0  0  0  0  0  0  0
  -14.0378   -1.3166  -22.2760 C   0  0  0  0  0  0  0  0  0  0  0  0
  -15.2680   -2.4103  -21.7130 Cl  0  0  0  0  0  0  0  0  0  0  0  0
  -12.0689    0.4524  -23.0621 C   0  0  0  0  0  0  0  0  0  0  0  0
  -11.7449   -0.8331  -22.6590 C   0  0  0  0  0  0  0  0  0  0  0  0
  -12.7234   -1.7366  -22.2747 C   0  0  0  0  0  0  0  0  0  0  0  0
  -10.4043   -1.1167  -22.6756 O   0  0  0  0  0  0  0  0  0  0  0  0
   -9.9748   -2.4314  -22.2955 C   0  0  1  0  0  0  0  0  0  0  0  0
   -8.4797   -2.4221  -22.3277 C   0  0  1  0  0  0  0  0  0  0  0  0
   -7.9516   -1.4022  -21.4288 N   0  0  0  0  0  0  0  0  0  0  0  0
   -6.7186   -1.4746  -20.9323 C   0  0  0  0  0  0  0  0  0  0  0  0
   -5.9658   -2.4242  -21.1580 O   0  0  0  0  0  0  0  0  0  0  0  0
   -6.2909   -0.3373  -20.0977 C   0  0  0  0  0  0  0  0  0  0  0  0
   -5.3201    0.6338  -20.5825 C   0  0  0  0  0  0  0  0  0  0  0  0
   -4.8219    0.6336  -21.8885 C   0  0  0  0  0  0  0  0  0  0  0  0
   -3.9159    1.6055  -22.2847 C   0  0  0  0  0  0  0  0  0  0  0  0
   -3.4832    2.5702  -21.3912 C   0  0  0  0  0  0  0  0  0  0  0  0
   -3.9580    2.5851  -20.0881 C   0  0  0  0  0  0  0  0  0  0  0  0
   -4.8891    1.6266  -19.6806 C   0  0  0  0  0  0  0  0  0  0  0  0
   -5.4259    1.6571  -18.3973 N   0  0  0  0  0  0  0  0  0  0  0  0
   -6.3847    0.7929  -17.9364 C   0  0  0  0  0  0  0  0  0  0  0  0
   -6.8912    0.9637  -16.8222 O   0  0  0  0  0  0  0  0  0  0  0  0
   -6.7889   -0.2271  -18.8413 C   0  0  0  0  0  0  0  0  0  0  0  0
  -12.3979    3.6655  -22.1682 H   0  0  0  0  0  0  0  0  0  0  0  0
  -13.4595    3.6019  -20.7206 H   0  0  0  0  0  0  0  0  0  0  0  0
  -15.5202    4.3981  -23.9644 H   0  0  0  0  0  0  0  0  0  0  0  0
  -15.1961    2.3811  -21.9751 H   0  0  0  0  0  0  0  0  0  0  0  0
  -15.4412    0.2551  -22.6874 H   0  0  0  0  0  0  0  0  0  0  0  0
  -11.2977    1.1481  -23.3579 H   0  0  0  0  0  0  0  0  0  0  0  0
  -12.4638   -2.7432  -21.9819 H   0  0  0  0  0  0  0  0  0  0  0  0
  -10.3305   -2.6680  -21.2819 H   0  0  0  0  0  0  0  0  0  0  0  0
  -10.3644   -3.1770  -23.0042 H   0  0  0  0  0  0  0  0  0  0  0  0
   -8.1055   -3.4080  -22.0148 H   0  0  0  0  0  0  0  0  0  0  0  0
   -8.1417   -2.2101  -23.3528 H   0  0  0  0  0  0  0  0  0  0  0  0
   -8.5317   -0.6272  -21.1786 H   0  0  0  0  0  0  0  0  0  0  0  0
   -5.1426   -0.1235  -22.5889 H   0  0  0  0  0  0  0  0  0  0  0  0
   -3.5446    1.6100  -23.2988 H   0  0  0  0  0  0  0  0  0  0  0  0
   -2.7710    3.3164  -21.7111 H   0  0  0  0  0  0  0  0  0  0  0  0
   -3.6096    3.3337  -19.3920 H   0  0  0  0  0  0  0  0  0  0  0  0
   -5.0890    2.3575  -17.7681 H   0  0  0  0  0  0  0  0  0  0  0  0
   -7.5252   -0.9458  -18.5132 H   0  0  0  0  0  0  0  0  0  0  0  0
  1  2  2  0
  2  3  1  0
  2  4  1  0
  3  5  1  0
  3 31  1  6
  3 32  1  0
  4  5  1  0
  4 33  1  0
  5  6  1  0
  5 34  1  1
  6  7  1  0
  7  8  2  0
  7 11  1  0
  8  9  1  0
  8 35  1  0
  9 10  1  0
  9 13  2  0
 11 12  2  0
 11 36  1  0
 12 13  1  0
 12 14  1  0
 13 37  1  0
 14 15  1  0
 15 16  1  0
 15 38  1  1
 15 39  1  0
 16 17  1  0
 16 40  1  1
 16 41  1  0
 17 18  1  0
 17 42  1  0
 18 19  2  0
 18 20  1  0
 20 21  1  0
 20 30  2  0
 21 22  2  0
 21 26  1  0
 22 23  1  0
 22 43  1  0
 23 24  2  0
 23 44  1  0
 24 25  1  0
 24 45  1  0
 25 26  2  0
 25 46  1  0
 26 27  1  0
 27 28  1  0
 27 47  1  0
 28 29  2  0
 28 30  1  0
 30 48  1  0
M  END
$$$$
