LIG(A-306)
     RDKit          3D

 43 46  0  0  1  0  0  0  0  0999 V2000
    9.3156    1.1364   21.0275 O   0  0  0  0  0  0  0  0  0  0  0  0
    8.8343    0.1447   21.5592 C   0  0  0  0  0  0  0  0  0  0  0  0
    9.4570   -0.3902   22.9049 C   0  0  1  0  0  0  0  0  0  0  0  0
   10.9708   -0.3674   22.9544 C   0  0  0  0  0  0  0  0  0  0  0  0
   11.7357   -1.0541   22.0123 C   0  0  0  0  0  0  0  0  0  0  0  0
   13.1061   -0.9682   22.0756 C   0  0  0  0  0  0  0  0  0  0  0  0
   13.8303   -1.5479   21.0835 F   0  0  0  0  0  0  0  0  0  0  0  0
   13.7859   -0.2667   23.0388 C   0  0  0  0  0  0  0  0  0  0  0  0
   13.0278    0.4203   23.9470 C   0  0  0  0  0  0  0  0  0  0  0  0
   13.6418    1.1331   24.9163 F   0  0  0  0  0  0  0  0  0  0  0  0
   11.6433    0.4012   23.9286 C   0  0  0  0  0  0  0  0  0  0  0  0
   10.9944    1.1580   24.8677 O   0  0  0  0  0  0  0  0  0  0  0  0
    9.6554    0.7318   25.1467 C   0  0  1  0  0  0  0  0  0  0  0  0
    8.8473    0.6386   23.8726 C   0  0  2  0  0  0  0  0  0  0  0  0
    8.8778   -1.6105   23.4014 O   0  0  0  0  0  0  0  0  0  0  0  0
    9.3323   -2.8432   22.8298 C   0  0  1  0  0  0  0  0  0  0  0  0
    7.7213   -0.4696   21.1003 N   0  0  0  0  0  0  0  0  0  0  0  0
    6.9228   -0.0371   20.0222 C   0  0  0  0  0  0  0  0  0  0  0  0
    5.7670    0.7537   20.3085 C   0  0  0  0  0  0  0  0  0  0  0  0
    5.3120    1.0391   21.6225 C   0  0  0  0  0  0  0  0  0  0  0  0
    4.2160    1.8304   21.8321 C   0  0  0  0  0  0  0  0  0  0  0  0
    3.5243    2.3770   20.7595 C   0  0  0  0  0  0  0  0  0  0  0  0
    3.9200    2.1279   19.4762 C   0  0  0  0  0  0  0  0  0  0  0  0
    5.0455    1.3074   19.2150 C   0  0  0  0  0  0  0  0  0  0  0  0
    5.5094    1.0215   17.9073 C   0  0  0  0  0  0  0  0  0  0  0  0
    6.5735    0.2792   17.6394 N   0  0  0  0  0  0  0  0  0  0  0  0
    7.2484   -0.2330   18.6787 C   0  0  0  0  0  0  0  0  0  0  0  0
   11.2585   -1.6446   21.2442 H   0  0  0  0  0  0  0  0  0  0  0  0
   14.8651   -0.2572   23.0780 H   0  0  0  0  0  0  0  0  0  0  0  0
    9.6843   -0.2564   25.6290 H   0  0  0  0  0  0  0  0  0  0  0  0
    9.1797    1.4565   25.8238 H   0  0  0  0  0  0  0  0  0  0  0  0
    7.8197    0.3340   24.1202 H   0  0  0  0  0  0  0  0  0  0  0  0
    8.8301    1.6245   23.3849 H   0  0  0  0  0  0  0  0  0  0  0  0
    8.8051   -3.6843   23.3039 H   0  0  0  0  0  0  0  0  0  0  0  0
    9.1265   -2.8442   21.7492 H   0  0  0  0  0  0  0  0  0  0  0  0
   10.4144   -2.9478   22.9970 H   0  0  0  0  0  0  0  0  0  0  0  0
    7.4387   -1.3070   21.5682 H   0  0  0  0  0  0  0  0  0  0  0  0
    5.8390    0.6253   22.4694 H   0  0  0  0  0  0  0  0  0  0  0  0
    3.8859    2.0316   22.8405 H   0  0  0  0  0  0  0  0  0  0  0  0
    2.6650    3.0053   20.9417 H   0  0  0  0  0  0  0  0  0  0  0  0
    3.3701    2.5600   18.6531 H   0  0  0  0  0  0  0  0  0  0  0  0
    4.9600    1.4355   17.0747 H   0  0  0  0  0  0  0  0  0  0  0  0
    8.1109   -0.8449   18.4595 H   0  0  0  0  0  0  0  0  0  0  0  0
  1  2  2  0
  2  3  1  0
  2 17  1  0
  3  4  1  0
  3 14  1  0
  3 15  1  1
  4  5  2  0
  4 11  1  0
  5  6  1  0
  5 28  1  0
  6  7  1  0
  6  8  2  0
  8  9  1  0
  8 29  1  0
  9 10  1  0
  9 11  2  0
 11 12  1  0
 12 13  1  0
 13 14  1  0
 13 30  1  1
 13 31  1  0
 14 32  1  1
 14 33  1  0
 15 16  1  0
 16 34  1  1
 16 35  1  0
 16 36  1  0
 17 18  1  0
 17 37  1  0
 18 19  2  0
 18 27  1  0
 19 20  1  0
 19 24  1  0
 20 21  2  0
 20 38  1  0
 21 22  1  0
 21 39  1  0
 22 23  2  0
 22 40  1  0
 23 24  1  0
 23 41  1  0
 24 25  2  0
 25 26  1  0
 25 42  1  0
 26 27  2  0
 27 43  1  0
M  END
$$$$
