LIG(A-306)
     RDKit          3D

 43 46  0  0  1  0  0  0  0  0999 V2000
   -9.7680    1.0304  -21.1547 O   0  0  0  0  0  0  0  0  0  0  0  0
   -9.3303   -0.0576  -21.5127 C   0  0  0  0  0  0  0  0  0  0  0  0
   -9.8771   -0.7925  -22.7364 C   0  0  2  0  0  0  0  0  0  0  0  0
   -9.1775   -0.1284  -23.9583 C   0  0  1  0  0  0  0  0  0  0  0  0
  -10.1642    0.3568  -24.9916 C   0  0  1  0  0  0  0  0  0  0  0  0
  -11.2909    1.0382  -24.4283 O   0  0  0  0  0  0  0  0  0  0  0  0
  -11.3900   -0.6653  -22.7151 C   0  0  0  0  0  0  0  0  0  0  0  0
  -12.0081    0.2560  -23.5598 C   0  0  0  0  0  0  0  0  0  0  0  0
  -13.3843    0.4289  -23.5679 C   0  0  0  0  0  0  0  0  0  0  0  0
  -14.1691   -0.3245  -22.7139 C   0  0  0  0  0  0  0  0  0  0  0  0
  -12.1972   -1.4400  -21.8816 C   0  0  0  0  0  0  0  0  0  0  0  0
  -13.5661   -1.2517  -21.8879 C   0  0  0  0  0  0  0  0  0  0  0  0
  -14.5578   -2.2211  -20.8364 Cl  0  0  0  0  0  0  0  0  0  0  0  0
   -8.3382   -0.6914  -20.8627 N   0  0  0  0  0  0  0  0  0  0  0  0
   -7.2777   -0.1862  -20.0779 C   0  0  0  0  0  0  0  0  0  0  0  0
   -6.3719    0.8473  -20.3990 C   0  0  0  0  0  0  0  0  0  0  0  0
   -6.3114    1.3976  -21.8020 C   0  0  1  0  0  0  0  0  0  0  0  0
   -5.0789    2.1449  -22.0727 N   0  0  1  0  0  0  0  0  0  0  0  0
   -4.7563    3.1063  -20.9889 C   0  0  1  0  0  0  0  0  0  0  0  0
   -4.4894    2.3902  -19.6842 C   0  0  1  0  0  0  0  0  0  0  0  0
   -5.5895    1.4020  -19.3741 C   0  0  0  0  0  0  0  0  0  0  0  0
   -5.8277    0.9876  -18.0815 C   0  0  0  0  0  0  0  0  0  0  0  0
   -6.7228    0.0569  -17.7429 N   0  0  0  0  0  0  0  0  0  0  0  0
   -7.3948   -0.5386  -18.7347 C   0  0  0  0  0  0  0  0  0  0  0  0
   -9.5923   -1.8539  -22.6879 H   0  0  0  0  0  0  0  0  0  0  0  0
   -8.5865    0.7290  -23.6040 H   0  0  0  0  0  0  0  0  0  0  0  0
   -8.5092   -0.8660  -24.4267 H   0  0  0  0  0  0  0  0  0  0  0  0
   -9.6445    1.0468  -25.6726 H   0  0  0  0  0  0  0  0  0  0  0  0
  -10.5302   -0.5119  -25.5587 H   0  0  0  0  0  0  0  0  0  0  0  0
  -13.8392    1.1458  -24.2354 H   0  0  0  0  0  0  0  0  0  0  0  0
  -15.2404   -0.1890  -22.6934 H   0  0  0  0  0  0  0  0  0  0  0  0
  -11.7544   -2.1829  -21.2347 H   0  0  0  0  0  0  0  0  0  0  0  0
   -8.3538   -1.6875  -20.9493 H   0  0  0  0  0  0  0  0  0  0  0  0
   -6.3753    0.5586  -22.5105 H   0  0  0  0  0  0  0  0  0  0  0  0
   -7.1690    2.0701  -21.9518 H   0  0  0  0  0  0  0  0  0  0  0  0
   -4.3228    1.4968  -22.1638 H   0  0  0  0  0  0  0  0  0  0  0  0
   -5.1900    2.6500  -22.9286 H   0  0  0  0  0  0  0  0  0  0  0  0
   -3.8617    3.6801  -21.2728 H   0  0  0  0  0  0  0  0  0  0  0  0
   -5.6048    3.7932  -20.8542 H   0  0  0  0  0  0  0  0  0  0  0  0
   -3.5328    1.8520  -19.7582 H   0  0  0  0  0  0  0  0  0  0  0  0
   -4.4317    3.1305  -18.8727 H   0  0  0  0  0  0  0  0  0  0  0  0
   -5.2525    1.4458  -17.2907 H   0  0  0  0  0  0  0  0  0  0  0  0
   -8.0696   -1.3420  -18.4786 H   0  0  0  0  0  0  0  0  0  0  0  0
  1  2  2  0
  2  3  1  0
  2 14  1  0
  3  4  1  0
  3  7  1  0
  3 25  1  1
  4  5  1  0
  4 26  1  1
  4 27  1  0
  5  6  1  0
  5 28  1  6
  5 29  1  0
  6  8  1  0
  7  8  2  0
  7 11  1  0
  8  9  1  0
  9 10  2  0
  9 30  1  0
 10 12  1  0
 10 31  1  0
 11 12  2  0
 11 32  1  0
 12 13  1  0
 14 15  1  0
 14 33  1  0
 15 16  2  0
 15 24  1  0
 16 17  1  0
 16 21  1  0
 17 18  1  0
 17 34  1  6
 17 35  1  0
 18 19  1  0
 18 36  1  6
 18 37  1  0
 19 20  1  0
 19 38  1  6
 19 39  1  0
 20 21  1  0
 20 40  1  6
 20 41  1  0
 21 22  2  0
 22 23  1  0
 22 42  1  0
 23 24  2  0
 24 43  1  0
M  CHG  1  18   1
M  END
$$$$
