LIG(A-305)
     RDKit          3D

 31 32  0  0  0  0  0  0  0  0999 V2000
   14.4982   -1.7109   20.4871 N   0  0  0  0  0  0  0  0  0  0  0  0
   13.7652   -1.2989   21.2581 C   0  0  0  0  0  0  0  0  0  0  0  0
   12.8061   -0.8078   22.2131 C   0  0  0  0  0  0  0  0  0  0  0  0
   13.1811    0.0042   23.2820 C   0  0  0  0  0  0  0  0  0  0  0  0
   12.3181    0.4463   24.2060 N   0  0  0  0  0  0  0  0  0  0  0  0
   11.0291    0.1072   24.0550 C   0  0  0  0  0  0  0  0  0  0  0  0
   11.4642   -1.1579   22.0961 C   0  0  0  0  0  0  0  0  0  0  0  0
   10.5411   -0.6709   23.0151 C   0  0  0  0  0  0  0  0  0  0  0  0
    9.0561   -0.8510   22.7981 C   0  0  1  0  0  0  0  0  0  0  0  0
    8.6251   -0.0581   21.5800 C   0  0  0  0  0  0  0  0  0  0  0  0
    9.4271    0.5999   20.9310 O   0  0  0  0  0  0  0  0  0  0  0  0
    7.3101    0.0548   21.3900 N   0  0  0  0  0  0  0  0  0  0  0  0
    6.6921    0.3537   20.1550 C   0  0  0  0  0  0  0  0  0  0  0  0
    5.3731    0.8127   20.1630 C   0  0  0  0  0  0  0  0  0  0  0  0
    4.6420    1.0957   21.4510 C   0  0  1  0  0  0  0  0  0  0  0  0
    7.3301    0.1627   18.9250 C   0  0  0  0  0  0  0  0  0  0  0  0
    6.7721    0.4726   17.7510 N   0  0  0  0  0  0  0  0  0  0  0  0
    5.5340    0.9785   17.7770 C   0  0  0  0  0  0  0  0  0  0  0  0
    4.8050    1.1476   18.9380 C   0  0  0  0  0  0  0  0  0  0  0  0
   14.2186    0.2912   23.3696 H   0  0  0  0  0  0  0  0  0  0  0  0
   10.3244    0.4635   24.7918 H   0  0  0  0  0  0  0  0  0  0  0  0
   11.1409   -1.8055   21.2945 H   0  0  0  0  0  0  0  0  0  0  0  0
    8.8351   -1.9168   22.6391 H   0  0  0  0  0  0  0  0  0  0  0  0
    8.5098   -0.4911   23.6824 H   0  0  0  0  0  0  0  0  0  0  0  0
    6.7157   -0.0825   22.1823 H   0  0  0  0  0  0  0  0  0  0  0  0
    5.1792    1.8725   22.0151 H   0  0  0  0  0  0  0  0  0  0  0  0
    3.6237    1.4448   21.2253 H   0  0  0  0  0  0  0  0  0  0  0  0
    4.5896    0.1762   22.0524 H   0  0  0  0  0  0  0  0  0  0  0  0
    8.3252   -0.2570   18.9240 H   0  0  0  0  0  0  0  0  0  0  0  0
    5.0807    1.2702   16.8411 H   0  0  0  0  0  0  0  0  0  0  0  0
    3.7989    1.5378   18.8950 H   0  0  0  0  0  0  0  0  0  0  0  0
  1  2  3  0
  2  3  1  0
  3  4  2  0
  3  7  1  0
  4  5  1  0
  4 20  1  0
  5  6  2  0
  6  8  1  0
  6 21  1  0
  7  8  2  0
  7 22  1  0
  8  9  1  0
  9 10  1  0
  9 23  1  6
  9 24  1  0
 10 11  2  0
 10 12  1  0
 12 13  1  0
 12 25  1  0
 13 14  2  0
 13 16  1  0
 14 15  1  0
 14 19  1  0
 15 26  1  1
 15 27  1  0
 15 28  1  0
 16 17  2  0
 16 29  1  0
 17 18  1  0
 18 19  2  0
 18 30  1  0
 19 31  1  0
M  END
$$$$
