LIG(A-306)
     RDKit          3D

 41 43  0  0  0  0  0  0  0  0999 V2000
   14.1182   -1.5258   21.5316 Cl  0  0  0  0  0  0  0  0  0  0  0  0
   12.8591   -0.8381   22.5208 C   0  0  0  0  0  0  0  0  0  0  0  0
   13.1800    0.1529   23.4269 C   0  0  0  0  0  0  0  0  0  0  0  0
   12.1600    0.7367   24.1600 C   0  0  0  0  0  0  0  0  0  0  0  0
   10.8430    0.3464   23.9591 C   0  0  0  0  0  0  0  0  0  0  0  0
   11.5572   -1.2583   22.3319 C   0  0  0  0  0  0  0  0  0  0  0  0
   10.5261   -0.6416   23.0351 C   0  0  0  0  0  0  0  0  0  0  0  0
    9.0862   -0.9828   22.7252 C   0  0  1  0  0  0  0  0  0  0  0  0
    8.4919   -0.1219   21.6283 C   0  0  0  0  0  0  0  0  0  0  0  0
    9.0136    0.9393   21.2754 O   0  0  0  0  0  0  0  0  0  0  0  0
    7.3629   -0.6200   21.0784 N   0  0  0  0  0  0  0  0  0  0  0  0
    6.6337   -0.1041   19.9905 C   0  0  0  0  0  0  0  0  0  0  0  0
    7.0376   -0.2359   18.6605 C   0  0  0  0  0  0  0  0  0  0  0  0
    6.4344    0.3460   17.6156 N   0  0  0  0  0  0  0  0  0  0  0  0
    5.3783    1.1088   17.8647 C   0  0  0  0  0  0  0  0  0  0  0  0
    5.4736    0.6917   20.2567 C   0  0  0  0  0  0  0  0  0  0  0  0
    4.8393    1.3286   19.1568 C   0  0  0  0  0  0  0  0  0  0  0  0
    3.6892    2.1194   19.3920 C   0  0  0  0  0  0  0  0  0  0  0  0
    3.1773    2.2512   20.6471 C   0  0  0  0  0  0  0  0  0  0  0  0
    4.9097    0.8535   21.5488 C   0  0  0  0  0  0  0  0  0  0  0  0
    3.7716    1.6052   21.7370 C   0  0  0  0  0  0  0  0  0  0  0  0
    3.1207    1.6610   23.0830 C   0  0  0  0  0  0  0  0  0  0  0  0
    3.7519    1.3910   24.1009 O   0  0  0  0  0  0  0  0  0  0  0  0
    1.8186    1.9437   23.1122 N   0  0  0  0  0  0  0  0  0  0  0  0
    0.9858    1.6085   24.2512 C   0  0  1  0  0  0  0  0  0  0  0  0
   14.2048    0.4664   23.5612 H   0  0  0  0  0  0  0  0  0  0  0  0
   12.3901    1.4982   24.8905 H   0  0  0  0  0  0  0  0  0  0  0  0
   10.0548    0.8167   24.5282 H   0  0  0  0  0  0  0  0  0  0  0  0
   11.3402   -2.0609   21.6426 H   0  0  0  0  0  0  0  0  0  0  0  0
    9.0363   -2.0353   22.4093 H   0  0  0  0  0  0  0  0  0  0  0  0
    8.4897   -0.8457   23.6393 H   0  0  0  0  0  0  0  0  0  0  0  0
    7.0022   -1.4550   21.4938 H   0  0  0  0  0  0  0  0  0  0  0  0
    7.9007   -0.8532   18.4591 H   0  0  0  0  0  0  0  0  0  0  0  0
    4.8976    1.5941   17.0282 H   0  0  0  0  0  0  0  0  0  0  0  0
    3.2115    2.6246   18.5656 H   0  0  0  0  0  0  0  0  0  0  0  0
    2.3008    2.8625   20.8034 H   0  0  0  0  0  0  0  0  0  0  0  0
    5.3804    0.3797   22.3975 H   0  0  0  0  0  0  0  0  0  0  0  0
    1.4036    2.4006   22.3254 H   0  0  0  0  0  0  0  0  0  0  0  0
   -0.0476    1.9323   24.0585 H   0  0  0  0  0  0  0  0  0  0  0  0
    1.0051    0.5205   24.4118 H   0  0  0  0  0  0  0  0  0  0  0  0
    1.3685    2.1182   25.1477 H   0  0  0  0  0  0  0  0  0  0  0  0
  1  2  1  0
  2  3  2  0
  2  6  1  0
  3  4  1  0
  3 26  1  0
  4  5  2  0
  4 27  1  0
  5  7  1  0
  5 28  1  0
  6  7  2  0
  6 29  1  0
  7  8  1  0
  8  9  1  0
  8 30  1  6
  8 31  1  0
  9 10  2  0
  9 11  1  0
 11 12  1  0
 11 32  1  0
 12 13  2  0
 12 16  1  0
 13 14  1  0
 13 33  1  0
 14 15  2  0
 15 17  1  0
 15 34  1  0
 16 17  2  0
 16 20  1  0
 17 18  1  0
 18 19  2  0
 18 35  1  0
 19 21  1  0
 19 36  1  0
 20 21  2  0
 20 37  1  0
 21 22  1  0
 22 23  2  0
 22 24  1  0
 24 25  1  0
 24 38  1  0
 25 39  1  6
 25 40  1  0
 25 41  1  0
M  END
$$$$
