LIG(A-305)
     RDKit          3D

 39 40  0  0  0  0  0  0  0  0999 V2000
    3.0550    2.2667   23.3759 C   0  0  0  0  0  0  0  0  0  0  0  0
    5.3301    1.5038   22.5690 C   0  0  1  0  0  0  0  0  0  0  0  0
    5.0001    0.2717   21.7300 C   0  0  1  0  0  0  0  0  0  0  0  0
    5.4281    0.3886   20.2680 C   0  0  0  0  0  0  0  0  0  0  0  0
    6.4961   -0.3834   19.8081 C   0  0  0  0  0  0  0  0  0  0  0  0
    6.8791   -0.2684   18.4781 C   0  0  0  0  0  0  0  0  0  0  0  0
    5.2120    1.2825   18.0740 C   0  0  0  0  0  0  0  0  0  0  0  0
    4.7591    1.2455   19.3890 C   0  0  0  0  0  0  0  0  0  0  0  0
    0.7800    3.2566   23.9769 C   0  0  1  0  0  0  0  0  0  0  0  0
    0.6749    4.6966   24.4868 C   0  0  1  0  0  0  0  0  0  0  0  0
   -0.6471    4.9506   25.1948 C   0  0  1  0  0  0  0  0  0  0  0  0
   -1.8161    4.6405   24.2698 C   0  0  1  0  0  0  0  0  0  0  0  0
   -1.7640    3.2084   23.7519 C   0  0  1  0  0  0  0  0  0  0  0  0
   -0.4130    2.8515   23.1239 C   0  0  2  0  0  0  0  0  0  0  0  0
    4.1990    2.4017   22.4889 N   0  0  0  0  0  0  0  0  0  0  0  0
    6.2441    0.5435   17.6640 N   0  0  0  0  0  0  0  0  0  0  0  0
    1.9780    3.2146   23.1659 N   0  0  0  0  0  0  0  0  0  0  0  0
    3.0151    1.4227   24.2210 O   0  0  0  0  0  0  0  0  0  0  0  0
    5.5030    1.2103   23.6149 H   0  0  0  0  0  0  0  0  0  0  0  0
    6.2298    1.9974   22.1731 H   0  0  0  0  0  0  0  0  0  0  0  0
    5.5110   -0.5962   22.1726 H   0  0  0  0  0  0  0  0  0  0  0  0
    3.9122    0.1120   21.7613 H   0  0  0  0  0  0  0  0  0  0  0  0
    7.0149   -1.0573   20.4738 H   0  0  0  0  0  0  0  0  0  0  0  0
    7.7086   -0.8533   18.1089 H   0  0  0  0  0  0  0  0  0  0  0  0
    4.7141    1.9276   17.3652 H   0  0  0  0  0  0  0  0  0  0  0  0
    3.9274    1.8519   19.7161 H   0  0  0  0  0  0  0  0  0  0  0  0
    0.8689    2.5718   24.8330 H   0  0  0  0  0  0  0  0  0  0  0  0
    1.4981    4.8857   25.1915 H   0  0  0  0  0  0  0  0  0  0  0  0
    0.7588    5.3839   23.6321 H   0  0  0  0  0  0  0  0  0  0  0  0
   -0.7100    4.3080   26.0854 H   0  0  0  0  0  0  0  0  0  0  0  0
   -0.6973    6.0062   25.4999 H   0  0  0  0  0  0  0  0  0  0  0  0
   -2.7558    4.7850   24.8230 H   0  0  0  0  0  0  0  0  0  0  0  0
   -1.7850    5.3301   23.4134 H   0  0  0  0  0  0  0  0  0  0  0  0
   -1.9525    2.5240   24.5921 H   0  0  0  0  0  0  0  0  0  0  0  0
   -2.5491    3.0811   22.9920 H   0  0  0  0  0  0  0  0  0  0  0  0
   -0.3773    1.7628   22.9705 H   0  0  0  0  0  0  0  0  0  0  0  0
   -0.3353    3.3614   22.1524 H   0  0  0  0  0  0  0  0  0  0  0  0
    4.2040    3.1330   21.8070 H   0  0  0  0  0  0  0  0  0  0  0  0
    2.0678    3.8750   22.4203 H   0  0  0  0  0  0  0  0  0  0  0  0
  1 15  1  0
  1 17  1  0
  1 18  2  0
  2  3  1  0
  2 15  1  0
  2 19  1  1
  2 20  1  0
  3  4  1  0
  3 21  1  1
  3 22  1  0
  4  5  2  0
  4  8  1  0
  5  6  1  0
  5 23  1  0
  6 16  2  0
  6 24  1  0
  7  8  2  0
  7 16  1  0
  7 25  1  0
  8 26  1  0
  9 10  1  0
  9 14  1  0
  9 17  1  0
  9 27  1  1
 10 11  1  0
 10 28  1  1
 10 29  1  0
 11 12  1  0
 11 30  1  1
 11 31  1  0
 12 13  1  0
 12 32  1  1
 12 33  1  0
 13 14  1  0
 13 34  1  1
 13 35  1  0
 14 36  1  6
 14 37  1  0
 15 38  1  0
 17 39  1  0
M  END
$$$$
