LIG(A-305)
     RDKit          3D

 39 40  0  0  1  0  0  0  0  0999 V2000
    8.7408   -1.9546   23.1324 N   0  0  1  0  0  0  0  0  0  0  0  0
   12.6717   -2.0006   22.2380 C   0  0  1  0  0  0  0  0  0  0  0  0
    5.9164   -4.4146   19.6297 O   0  0  0  0  0  0  0  0  0  0  0  0
   12.1168   -0.9106   23.1190 C   0  0  0  0  0  0  0  0  0  0  0  0
    6.4156   -1.4556   21.3526 C   0  0  1  0  0  0  0  0  0  0  0  0
    7.1457   -3.7226   22.1856 C   0  0  0  0  0  0  0  0  0  0  0  0
    7.7128   -2.9796   23.3935 C   0  0  0  0  0  0  0  0  0  0  0  0
    6.5355   -3.3756   19.8426 C   0  0  0  0  0  0  0  0  0  0  0  0
    7.2294   -2.6987   18.6685 C   0  0  1  0  0  0  0  0  0  0  0  0
   12.8408    0.2634   23.2579 C   0  0  0  0  0  0  0  0  0  0  0  0
   12.3899    1.2964   24.0549 C   0  0  0  0  0  0  0  0  0  0  0  0
   11.1990    1.1714   24.7290 C   0  0  0  0  0  0  0  0  0  0  0  0
   10.4640    0.0084   24.6101 C   0  0  0  0  0  0  0  0  0  0  0  0
   10.9109   -1.0536   23.8261 C   0  0  0  0  0  0  0  0  0  0  0  0
   10.0499   -2.2886   23.7062 C   0  0  1  0  0  0  0  0  0  0  0  0
    8.8587   -1.4756   21.7463 C   0  0  1  0  0  0  0  0  0  0  0  0
    7.6836   -0.6426   21.3144 C   0  0  1  0  0  0  0  0  0  0  0  0
    6.6666   -2.8776   21.0846 N   0  0  0  0  0  0  0  0  0  0  0  0
    8.4352   -1.1552   23.6497 H   0  0  0  0  0  0  0  0  0  0  0  0
   13.6318   -1.6748   21.8113 H   0  0  0  0  0  0  0  0  0  0  0  0
   12.8262   -2.9115   22.8351 H   0  0  0  0  0  0  0  0  0  0  0  0
   11.9618   -2.2115   21.4246 H   0  0  0  0  0  0  0  0  0  0  0  0
    5.9601   -1.3568   22.3489 H   0  0  0  0  0  0  0  0  0  0  0  0
    5.7219   -1.0678   20.5921 H   0  0  0  0  0  0  0  0  0  0  0  0
    7.1000   -4.8008   22.1439 H   0  0  0  0  0  0  0  0  0  0  0  0
    7.3754   -3.1956   24.3964 H   0  0  0  0  0  0  0  0  0  0  0  0
    7.0569   -3.2837   17.7531 H   0  0  0  0  0  0  0  0  0  0  0  0
    6.8231   -1.6849   18.5376 H   0  0  0  0  0  0  0  0  0  0  0  0
    8.3097   -2.6380   18.8666 H   0  0  0  0  0  0  0  0  0  0  0  0
   13.7775    0.3721   22.7314 H   0  0  0  0  0  0  0  0  0  0  0  0
   12.9721    2.2012   24.1485 H   0  0  0  0  0  0  0  0  0  0  0  0
   10.8394    1.9793   25.3491 H   0  0  0  0  0  0  0  0  0  0  0  0
    9.5243   -0.0799   25.1351 H   0  0  0  0  0  0  0  0  0  0  0  0
    9.9052   -2.7263   24.7050 H   0  0  0  0  0  0  0  0  0  0  0  0
   10.5538   -3.0184   23.0555 H   0  0  0  0  0  0  0  0  0  0  0  0
    9.7709   -0.8668   21.6615 H   0  0  0  0  0  0  0  0  0  0  0  0
    8.9358   -2.3467   21.0791 H   0  0  0  0  0  0  0  0  0  0  0  0
    7.8524   -0.2837   20.2884 H   0  0  0  0  0  0  0  0  0  0  0  0
    7.5819    0.2180   21.9919 H   0  0  0  0  0  0  0  0  0  0  0  0
  1  7  1  0
  1 15  1  0
  1 16  1  0
  1 19  1  1
  2  4  1  0
  2 20  1  6
  2 21  1  0
  2 22  1  0
  3  8  2  0
  4 10  2  0
  4 14  1  0
  5 17  1  0
  5 18  1  0
  5 23  1  1
  5 24  1  0
  6  7  2  0
  6 18  1  0
  6 25  1  0
  7 26  1  0
  8  9  1  0
  8 18  1  0
  9 27  1  6
  9 28  1  0
  9 29  1  0
 10 11  1  0
 10 30  1  0
 11 12  2  0
 11 31  1  0
 12 13  1  0
 12 32  1  0
 13 14  2  0
 13 33  1  0
 14 15  1  0
 15 34  1  1
 15 35  1  0
 16 17  1  0
 16 36  1  1
 16 37  1  0
 17 38  1  6
 17 39  1  0
M  CHG  1   1   1
M  END
$$$$
