LIG(A-305)
     RDKit          3D

 12 12  0  0  0  0  0  0  0  0999 V2000
    3.8629    2.0704   19.5889 N   0  0  0  0  0  0  0  0  0  0  0  0
    4.8269    1.2314   19.1789 C   0  0  0  0  0  0  0  0  0  0  0  0
    5.2659    0.1474   19.9800 C   0  0  0  0  0  0  0  0  0  0  0  0
    6.7039   -0.5046   18.3020 C   0  0  0  0  0  0  0  0  0  0  0  0
    5.4379    1.3574   17.9019 C   0  0  0  0  0  0  0  0  0  0  0  0
    6.1889   -0.7296   19.5570 N   0  0  0  0  0  0  0  0  0  0  0  0
    6.3729    0.5004   17.4690 N   0  0  0  0  0  0  0  0  0  0  0  0
    4.2258    3.0014   19.6297 H   0  0  0  0  0  0  0  0  0  0  0  0
    3.5460    1.7967   20.4970 H   0  0  0  0  0  0  0  0  0  0  0  0
    4.8424    0.0232   20.9657 H   0  0  0  0  0  0  0  0  0  0  0  0
    7.4479   -1.2035   17.9493 H   0  0  0  0  0  0  0  0  0  0  0  0
    5.1386    2.1715   17.2585 H   0  0  0  0  0  0  0  0  0  0  0  0
  1  2  1  0
  1  8  1  0
  1  9  1  0
  2  3  2  0
  2  5  1  0
  3  6  1  0
  3 10  1  0
  4  6  2  0
  4  7  1  0
  4 11  1  0
  5  7  2  0
  5 12  1  0
M  END
$$$$
