LIG(A-305)
     RDKit          3D

 31 32  0  0  1  0  0  0  0  0999 V2000
    7.2638   -4.8140   21.5995 N   0  0  0  0  0  0  0  0  0  0  0  0
    7.6080   -2.4880   22.4065 C   0  0  1  0  0  0  0  0  0  0  0  0
    5.7256   -5.1999   19.9987 O   0  0  0  0  0  0  0  0  0  0  0  0
    7.5369   -3.9660   22.7695 C   0  0  1  0  0  0  0  0  0  0  0  0
    7.6996   -4.2590   27.9994 C   0  0  0  0  0  0  0  0  0  0  0  0
    8.6684   -4.0321   27.0123 C   0  0  0  0  0  0  0  0  0  0  0  0
    8.3203   -4.0090   25.6944 C   0  0  0  0  0  0  0  0  0  0  0  0
    6.9772   -4.2180   25.2745 C   0  0  0  0  0  0  0  0  0  0  0  0
    6.6066   -4.4809   20.4766 C   0  0  0  0  0  0  0  0  0  0  0  0
    6.9766   -3.3049   19.5825 C   0  0  1  0  0  0  0  0  0  0  0  0
    6.5461   -4.2139   23.8996 C   0  0  0  0  0  0  0  0  0  0  0  0
    5.2180   -4.4279   23.6177 C   0  0  0  0  0  0  0  0  0  0  0  0
    4.2691   -4.6449   24.6339 C   0  0  0  0  0  0  0  0  0  0  0  0
    4.6533   -4.6539   25.9328 C   0  0  0  0  0  0  0  0  0  0  0  0
    6.0033   -4.4429   26.2947 C   0  0  0  0  0  0  0  0  0  0  0  0
    6.4025   -4.4570   27.6526 C   0  0  0  0  0  0  0  0  0  0  0  0
    7.6088   -5.7514   21.6455 H   0  0  0  0  0  0  0  0  0  0  0  0
    7.8134   -1.8971   23.3113 H   0  0  0  0  0  0  0  0  0  0  0  0
    8.4131   -2.3287   21.6741 H   0  0  0  0  0  0  0  0  0  0  0  0
    6.6486   -2.1708   21.9716 H   0  0  0  0  0  0  0  0  0  0  0  0
    8.5296   -4.2456   23.1521 H   0  0  0  0  0  0  0  0  0  0  0  0
    7.9864   -4.2764   29.0405 H   0  0  0  0  0  0  0  0  0  0  0  0
    9.6980   -3.8743   27.2978 H   0  0  0  0  0  0  0  0  0  0  0  0
    9.0826   -3.8278   24.9511 H   0  0  0  0  0  0  0  0  0  0  0  0
    6.3679   -3.3341   18.6668 H   0  0  0  0  0  0  0  0  0  0  0  0
    6.7874   -2.3632   20.1186 H   0  0  0  0  0  0  0  0  0  0  0  0
    8.0421   -3.3677   19.3165 H   0  0  0  0  0  0  0  0  0  0  0  0
    4.8937   -4.4296   22.5876 H   0  0  0  0  0  0  0  0  0  0  0  0
    3.2322   -4.8045   24.3776 H   0  0  0  0  0  0  0  0  0  0  0  0
    3.9167   -4.8249   26.7039 H   0  0  0  0  0  0  0  0  0  0  0  0
    5.6651   -4.6274   28.4230 H   0  0  0  0  0  0  0  0  0  0  0  0
  1  4  1  0
  1  9  1  0
  1 17  1  0
  2  4  1  0
  2 18  1  1
  2 19  1  0
  2 20  1  0
  3  9  2  0
  4 11  1  0
  4 21  1  1
  5  6  2  0
  5 16  1  0
  5 22  1  0
  6  7  1  0
  6 23  1  0
  7  8  2  0
  7 24  1  0
  8 11  1  0
  8 15  1  0
  9 10  1  0
 10 25  1  6
 10 26  1  0
 10 27  1  0
 11 12  2  0
 12 13  1  0
 12 28  1  0
 13 14  2  0
 13 29  1  0
 14 15  1  0
 14 30  1  0
 15 16  2  0
 16 31  1  0
M  END
$$$$
