LIG(A-307)
     RDKit          3D

 57 62  0  0  1  0  0  0  0  0999 V2000
    6.6686    4.2419   24.9444 O   0  0  0  0  0  0  0  0  0  0  0  0
    7.5144    3.5479   24.4034 C   0  0  0  0  0  0  0  0  0  0  0  0
    7.8590    3.6840   23.1290 N   0  0  0  0  0  0  0  0  0  0  0  0
    7.0850    4.5115   22.2207 C   0  0  1  0  0  0  0  0  0  0  0  0
    8.1796    2.4318   25.2176 C   0  0  2  0  0  0  0  0  0  0  0  0
    7.3464    1.8306   26.3189 C   0  0  1  0  0  0  0  0  0  0  0  0
    8.4733    2.7469   26.6600 C   0  0  2  0  0  0  0  0  0  0  0  0
    9.1292    1.5117   24.5303 N   0  0  0  0  0  0  0  0  0  0  0  0
   10.4066    1.9199   24.2871 C   0  0  0  0  0  0  0  0  0  0  0  0
   10.7700    3.0482   24.5529 O   0  0  0  0  0  0  0  0  0  0  0  0
   11.3100    0.9559   23.6359 C   0  0  0  0  0  0  0  0  0  0  0  0
   12.6816    1.2069   23.6416 C   0  0  0  0  0  0  0  0  0  0  0  0
   13.5524    0.3508   22.9933 C   0  0  0  0  0  0  0  0  0  0  0  0
   13.0491   -0.7698   22.3657 C   0  0  0  0  0  0  0  0  0  0  0  0
   14.1371   -1.8086   21.4901 Cl  0  0  0  0  0  0  0  0  0  0  0  0
   11.7015   -1.0695   22.3745 C   0  0  0  0  0  0  0  0  0  0  0  0
   10.8155   -0.1850   22.9869 C   0  0  0  0  0  0  0  0  0  0  0  0
    8.6556    0.1738   24.1701 C   0  0  1  0  0  0  0  0  0  0  0  0
    9.3050   -0.3433   22.8581 C   0  0  1  0  0  0  0  0  0  0  0  0
    8.7410    0.4512   21.6793 C   0  0  0  0  0  0  0  0  0  0  0  0
    9.1376    1.5330   21.2853 O   0  0  0  0  0  0  0  0  0  0  0  0
    8.8488   -1.7841   22.5149 C   0  0  1  0  0  0  0  0  0  0  0  0
    7.5214   -1.5621   21.8016 C   0  0  1  0  0  0  0  0  0  0  0  0
    7.7087   -0.2563   21.1465 N   0  0  0  0  0  0  0  0  0  0  0  0
    6.8676    0.1976   20.0867 C   0  0  0  0  0  0  0  0  0  0  0  0
    5.7248    0.9893   20.3879 C   0  0  0  0  0  0  0  0  0  0  0  0
    5.2811    1.2809   21.7069 C   0  0  0  0  0  0  0  0  0  0  0  0
    4.1874    2.0732   21.9222 C   0  0  0  0  0  0  0  0  0  0  0  0
    3.4885    2.6218   20.8511 C   0  0  0  0  0  0  0  0  0  0  0  0
    3.8717    2.3647   19.5660 C   0  0  0  0  0  0  0  0  0  0  0  0
    4.9891    1.5338   19.2968 C   0  0  0  0  0  0  0  0  0  0  0  0
    5.4259    1.2159   17.9816 C   0  0  0  0  0  0  0  0  0  0  0  0
    6.4843    0.4555   17.7072 N   0  0  0  0  0  0  0  0  0  0  0  0
    7.1806   -0.0291   18.7465 C   0  0  0  0  0  0  0  0  0  0  0  0
    8.6686    3.2068   22.7871 H   0  0  0  0  0  0  0  0  0  0  0  0
    7.5417    4.4850   21.2204 H   0  0  0  0  0  0  0  0  0  0  0  0
    6.0552    4.1291   22.1639 H   0  0  0  0  0  0  0  0  0  0  0  0
    7.0716    5.5476   22.5901 H   0  0  0  0  0  0  0  0  0  0  0  0
    6.3070    2.1606   26.4638 H   0  0  0  0  0  0  0  0  0  0  0  0
    7.4247    0.7566   26.5430 H   0  0  0  0  0  0  0  0  0  0  0  0
    8.2635    3.7514   27.0563 H   0  0  0  0  0  0  0  0  0  0  0  0
    9.3812    2.3474   27.1354 H   0  0  0  0  0  0  0  0  0  0  0  0
   13.0661    2.0755   24.1556 H   0  0  0  0  0  0  0  0  0  0  0  0
   14.6125    0.5566   22.9785 H   0  0  0  0  0  0  0  0  0  0  0  0
   11.3390   -1.9763   21.9134 H   0  0  0  0  0  0  0  0  0  0  0  0
    8.9029   -0.5213   24.9859 H   0  0  0  0  0  0  0  0  0  0  0  0
    7.5644    0.2083   24.0357 H   0  0  0  0  0  0  0  0  0  0  0  0
    9.5741   -2.2819   21.8545 H   0  0  0  0  0  0  0  0  0  0  0  0
    8.7120   -2.3835   23.4272 H   0  0  0  0  0  0  0  0  0  0  0  0
    7.3345   -2.3527   21.0599 H   0  0  0  0  0  0  0  0  0  0  0  0
    6.6883   -1.5280   22.5190 H   0  0  0  0  0  0  0  0  0  0  0  0
    5.8155    0.8707   22.5510 H   0  0  0  0  0  0  0  0  0  0  0  0
    3.8632    2.2749   22.9324 H   0  0  0  0  0  0  0  0  0  0  0  0
    2.6351    3.2568   21.0380 H   0  0  0  0  0  0  0  0  0  0  0  0
    3.3183    2.7985   18.7462 H   0  0  0  0  0  0  0  0  0  0  0  0
    4.8632    1.6170   17.1516 H   0  0  0  0  0  0  0  0  0  0  0  0
    8.0456   -0.6384   18.5298 H   0  0  0  0  0  0  0  0  0  0  0  0
  1  2  2  0
  2  3  1  0
  2  5  1  0
  3  4  1  0
  3 35  1  0
  4 36  1  6
  4 37  1  0
  4 38  1  0
  5  6  1  0
  5  7  1  0
  5  8  1  6
  6  7  1  0
  6 39  1  6
  6 40  1  0
  7 41  1  6
  7 42  1  0
  8  9  1  0
  8 18  1  0
  9 10  2  0
  9 11  1  0
 11 12  2  0
 11 17  1  0
 12 13  1  0
 12 43  1  0
 13 14  2  0
 13 44  1  0
 14 15  1  0
 14 16  1  0
 16 17  2  0
 16 45  1  0
 17 19  1  0
 18 19  1  0
 18 46  1  1
 18 47  1  0
 19 20  1  6
 19 22  1  0
 20 21  2  0
 20 24  1  0
 22 23  1  0
 22 48  1  6
 22 49  1  0
 23 24  1  0
 23 50  1  6
 23 51  1  0
 24 25  1  0
 25 26  2  0
 25 34  1  0
 26 27  1  0
 26 31  1  0
 27 28  2  0
 27 52  1  0
 28 29  1  0
 28 53  1  0
 29 30  2  0
 29 54  1  0
 30 31  1  0
 30 55  1  0
 31 32  2  0
 32 33  1  0
 32 56  1  0
 33 34  2  0
 34 57  1  0
M  END
$$$$
