LIG(A-306)
     RDKit          3D

 34 36  0  0  0  0  0  0  0  0999 V2000
   14.1056   -1.4358   21.5151 Cl  0  0  0  0  0  0  0  0  0  0  0  0
   12.8060   -0.8249   22.4978 C   0  0  0  0  0  0  0  0  0  0  0  0
   13.0836    0.1046   23.4803 C   0  0  0  0  0  0  0  0  0  0  0  0
   12.0343    0.6078   24.2306 C   0  0  0  0  0  0  0  0  0  0  0  0
   10.7333    0.1966   23.9773 C   0  0  0  0  0  0  0  0  0  0  0  0
   11.5170   -1.2522   22.2416 C   0  0  0  0  0  0  0  0  0  0  0  0
   10.4576   -0.7210   22.9707 C   0  0  0  0  0  0  0  0  0  0  0  0
    9.0315   -1.0830   22.6171 C   0  0  1  0  0  0  0  0  0  0  0  0
    8.4207   -0.1736   21.5695 C   0  0  0  0  0  0  0  0  0  0  0  0
    8.9253    0.9132   21.2793 O   0  0  0  0  0  0  0  0  0  0  0  0
    7.2980   -0.6600   20.9896 N   0  0  0  0  0  0  0  0  0  0  0  0
    6.5818   -0.0629   19.9235 C   0  0  0  0  0  0  0  0  0  0  0  0
    6.9797   -0.2815   18.6066 C   0  0  0  0  0  0  0  0  0  0  0  0
    6.4135    0.3180   17.5505 N   0  0  0  0  0  0  0  0  0  0  0  0
    5.4075    1.1708   17.7791 C   0  0  0  0  0  0  0  0  0  0  0  0
    5.5137    0.8217   20.1338 C   0  0  0  0  0  0  0  0  0  0  0  0
    4.8605    1.2457   21.2596 N   0  0  0  0  0  0  0  0  0  0  0  0
    5.0899    0.9041   22.6544 C   0  0  1  0  0  0  0  0  0  0  0  0
    4.8955    1.4759   19.0445 C   0  0  0  0  0  0  0  0  0  0  0  0
    3.8845    2.2695   19.6433 C   0  0  0  0  0  0  0  0  0  0  0  0
    3.8645    2.1279   20.9520 N   0  0  0  0  0  0  0  0  0  0  0  0
   14.0970    0.4319   23.6598 H   0  0  0  0  0  0  0  0  0  0  0  0
   12.2290    1.3232   25.0159 H   0  0  0  0  0  0  0  0  0  0  0  0
    9.9237    0.5953   24.5707 H   0  0  0  0  0  0  0  0  0  0  0  0
   11.3328   -1.9947   21.4792 H   0  0  0  0  0  0  0  0  0  0  0  0
    9.0185   -2.1141   22.2340 H   0  0  0  0  0  0  0  0  0  0  0  0
    8.4203   -1.0232   23.5297 H   0  0  0  0  0  0  0  0  0  0  0  0
    6.9406   -1.5225   21.3480 H   0  0  0  0  0  0  0  0  0  0  0  0
    7.7897   -0.9728   18.4268 H   0  0  0  0  0  0  0  0  0  0  0  0
    4.9593    1.6580   16.9257 H   0  0  0  0  0  0  0  0  0  0  0  0
    6.1118    1.1941   22.9401 H   0  0  0  0  0  0  0  0  0  0  0  0
    4.3665    1.4396   23.2867 H   0  0  0  0  0  0  0  0  0  0  0  0
    4.9647   -0.1801   22.7915 H   0  0  0  0  0  0  0  0  0  0  0  0
    3.2129    2.9118   19.0930 H   0  0  0  0  0  0  0  0  0  0  0  0
  1  2  1  0
  2  3  2  0
  2  6  1  0
  3  4  1  0
  3 22  1  0
  4  5  2  0
  4 23  1  0
  5  7  1  0
  5 24  1  0
  6  7  2  0
  6 25  1  0
  7  8  1  0
  8  9  1  0
  8 26  1  6
  8 27  1  0
  9 10  2  0
  9 11  1  0
 11 12  1  0
 11 28  1  0
 12 13  2  0
 12 16  1  0
 13 14  1  0
 13 29  1  0
 14 15  2  0
 15 19  1  0
 15 30  1  0
 16 17  1  0
 16 19  2  0
 17 18  1  0
 17 21  1  0
 18 31  1  1
 18 32  1  0
 18 33  1  0
 19 20  1  0
 20 21  2  0
 20 34  1  0
M  END
$$$$
