LIG(A-305)
     RDKit          3D

 34 37  0  0  1  0  0  0  0  0999 V2000
    8.7669    1.2646   21.1513 O   0  0  0  0  0  0  0  0  0  0  0  0
    8.3639    0.1206   21.3284 C   0  0  0  0  0  0  0  0  0  0  0  0
    8.8000   -0.7294   22.5234 C   0  0  2  0  0  0  0  0  0  0  0  0
    8.3132   -0.0733   23.8114 C   0  0  1  0  0  0  0  0  0  0  0  0
    9.4603    0.6486   24.3382 O   0  0  0  0  0  0  0  0  0  0  0  0
   10.3020   -0.6695   22.7022 C   0  0  0  0  0  0  0  0  0  0  0  0
   10.6032    0.2505   23.6841 C   0  0  0  0  0  0  0  0  0  0  0  0
   11.9062    0.6154   23.9780 C   0  0  0  0  0  0  0  0  0  0  0  0
   12.9331    0.0094   23.2759 C   0  0  0  0  0  0  0  0  0  0  0  0
   11.3339   -1.2956   22.0191 C   0  0  0  0  0  0  0  0  0  0  0  0
   12.6339   -0.9566   22.3289 C   0  0  0  0  0  0  0  0  0  0  0  0
   13.9268   -1.8397   21.5858 Cl  0  0  0  0  0  0  0  0  0  0  0  0
    7.4817   -0.4844   20.4905 N   0  0  0  0  0  0  0  0  0  0  0  0
    6.9646    0.0486   19.3445 C   0  0  0  0  0  0  0  0  0  0  0  0
    5.7297    0.6507   19.3087 N   0  0  0  0  0  0  0  0  0  0  0  0
    5.6026    1.0697   18.0097 C   0  0  0  0  0  0  0  0  0  0  0  0
    6.6565    0.7626   17.3106 N   0  0  0  0  0  0  0  0  0  0  0  0
    7.5355    0.1046   18.1545 N   0  0  0  0  0  0  0  0  0  0  0  0
    4.7868    0.8528   20.4318 C   0  0  1  0  0  0  0  0  0  0  0  0
    5.1400    1.8478   21.4827 C   0  0  1  0  0  0  0  0  0  0  0  0
    4.0419    2.1409   20.5078 C   0  0  2  0  0  0  0  0  0  0  0  0
    8.4403   -1.7652   22.4351 H   0  0  0  0  0  0  0  0  0  0  0  0
    7.4862    0.6206   23.6005 H   0  0  0  0  0  0  0  0  0  0  0  0
    7.9772   -0.8369   24.5284 H   0  0  0  0  0  0  0  0  0  0  0  0
   12.1160    1.3550   24.7365 H   0  0  0  0  0  0  0  0  0  0  0  0
   13.9595    0.2871   23.4645 H   0  0  0  0  0  0  0  0  0  0  0  0
   11.1232   -2.0339   21.2595 H   0  0  0  0  0  0  0  0  0  0  0  0
    7.1831   -1.4066   20.7362 H   0  0  0  0  0  0  0  0  0  0  0  0
    4.7397    1.5875   17.6174 H   0  0  0  0  0  0  0  0  0  0  0  0
    4.2433   -0.0395   20.7758 H   0  0  0  0  0  0  0  0  0  0  0  0
    4.9004    1.6438   22.5367 H   0  0  0  0  0  0  0  0  0  0  0  0
    6.0907    2.3979   21.4227 H   0  0  0  0  0  0  0  0  0  0  0  0
    2.9950    2.1522   20.8451 H   0  0  0  0  0  0  0  0  0  0  0  0
    4.1853    2.9063   19.7310 H   0  0  0  0  0  0  0  0  0  0  0  0
  1  2  2  0
  2  3  1  0
  2 13  1  0
  3  4  1  0
  3  6  1  0
  3 22  1  6
  4  5  1  0
  4 23  1  6
  4 24  1  0
  5  7  1  0
  6  7  2  0
  6 10  1  0
  7  8  1  0
  8  9  2  0
  8 25  1  0
  9 11  1  0
  9 26  1  0
 10 11  2  0
 10 27  1  0
 11 12  1  0
 13 14  1  0
 13 28  1  0
 14 15  1  0
 14 18  2  0
 15 16  1  0
 15 19  1  0
 16 17  2  0
 16 29  1  0
 17 18  1  0
 19 20  1  0
 19 21  1  0
 19 30  1  1
 20 21  1  0
 20 31  1  1
 20 32  1  0
 21 33  1  1
 21 34  1  0
M  END
$$$$
