LIG(A-306)
     RDKit          3D

 45 47  0  0  0  0  0  0  0  0999 V2000
    9.0276    0.7931   21.4181 O   0  0  0  0  0  0  0  0  0  0  0  0
    8.5117   -0.2933   21.6667 C   0  0  0  0  0  0  0  0  0  0  0  0
    7.3873   -0.7417   21.0624 N   0  0  0  0  0  0  0  0  0  0  0  0
    6.6739   -0.1489   19.9971 C   0  0  0  0  0  0  0  0  0  0  0  0
    5.5555    0.6901   20.2997 C   0  0  0  0  0  0  0  0  0  0  0  0
    5.0753    0.9217   21.6146 C   0  0  0  0  0  0  0  0  0  0  0  0
    4.0109    1.7499   21.8389 C   0  0  0  0  0  0  0  0  0  0  0  0
    3.3766    2.3873   20.7819 C   0  0  0  0  0  0  0  0  0  0  0  0
    3.7969    2.1941   19.4976 C   0  0  0  0  0  0  0  0  0  0  0  0
    4.8908    1.3387   19.2192 C   0  0  0  0  0  0  0  0  0  0  0  0
    5.3686    1.0901   17.9088 C   0  0  0  0  0  0  0  0  0  0  0  0
    6.4006    0.3040   17.6271 N   0  0  0  0  0  0  0  0  0  0  0  0
    7.0252   -0.2906   18.6528 C   0  0  0  0  0  0  0  0  0  0  0  0
    9.1108   -1.2508   22.6790 C   0  0  1  0  0  0  0  0  0  0  0  0
   10.5088   -0.8021   23.0520 C   0  0  0  0  0  0  0  0  0  0  0  0
   11.5744   -1.1995   22.2440 C   0  0  0  0  0  0  0  0  0  0  0  0
   12.8506   -0.7409   22.5089 C   0  0  0  0  0  0  0  0  0  0  0  0
   14.1510   -1.1836   21.4366 Cl  0  0  0  0  0  0  0  0  0  0  0  0
   13.1105    0.0840   23.5761 C   0  0  0  0  0  0  0  0  0  0  0  0
   12.0676    0.4597   24.3999 C   0  0  0  0  0  0  0  0  0  0  0  0
   10.7630    0.0316   24.1590 C   0  0  0  0  0  0  0  0  0  0  0  0
    9.6423    0.4598   25.0809 C   0  0  1  0  0  0  0  0  0  0  0  0
   10.0915    1.3511   26.1626 N   0  0  0  0  0  0  0  0  0  0  0  0
    9.9851    0.9939   27.7400 S   0  0  1  0  0  0  0  0  0  0  0  0
   11.3007    1.1203   28.2852 O   0  0  0  0  0  0  0  0  0  0  0  0
    8.9385    1.8063   28.2790 O   0  0  0  0  0  0  0  0  0  0  0  0
    9.4959   -0.6832   27.8765 C   0  0  1  0  0  0  0  0  0  0  0  0
    7.0145   -1.6004   21.4141 H   0  0  0  0  0  0  0  0  0  0  0  0
    5.5577    0.4368   22.4504 H   0  0  0  0  0  0  0  0  0  0  0  0
    3.6605    1.9095   22.8479 H   0  0  0  0  0  0  0  0  0  0  0  0
    2.5414    3.0435   20.9776 H   0  0  0  0  0  0  0  0  0  0  0  0
    3.2910    2.6976   18.6871 H   0  0  0  0  0  0  0  0  0  0  0  0
    4.8605    1.5711   17.0860 H   0  0  0  0  0  0  0  0  0  0  0  0
    7.8654   -0.9288   18.4221 H   0  0  0  0  0  0  0  0  0  0  0  0
    8.4810   -1.2685   23.5807 H   0  0  0  0  0  0  0  0  0  0  0  0
    9.1561   -2.2600   22.2434 H   0  0  0  0  0  0  0  0  0  0  0  0
   11.4019   -1.8656   21.4115 H   0  0  0  0  0  0  0  0  0  0  0  0
   14.1143    0.4332   23.7678 H   0  0  0  0  0  0  0  0  0  0  0  0
   12.2669    1.0982   25.2479 H   0  0  0  0  0  0  0  0  0  0  0  0
    8.8821    0.9871   24.4859 H   0  0  0  0  0  0  0  0  0  0  0  0
    9.1967   -0.4396   25.5309 H   0  0  0  0  0  0  0  0  0  0  0  0
   10.4875    2.2334   25.9081 H   0  0  0  0  0  0  0  0  0  0  0  0
    9.4147   -0.9567   28.9389 H   0  0  0  0  0  0  0  0  0  0  0  0
    8.5207   -0.8216   27.3868 H   0  0  0  0  0  0  0  0  0  0  0  0
   10.2452   -1.3244   27.3892 H   0  0  0  0  0  0  0  0  0  0  0  0
  1  2  2  0
  2  3  1  0
  2 14  1  0
  3  4  1  0
  3 28  1  0
  4  5  2  0
  4 13  1  0
  5  6  1  0
  5 10  1  0
  6  7  2  0
  6 29  1  0
  7  8  1  0
  7 30  1  0
  8  9  2  0
  8 31  1  0
  9 10  1  0
  9 32  1  0
 10 11  2  0
 11 12  1  0
 11 33  1  0
 12 13  2  0
 13 34  1  0
 14 15  1  0
 14 35  1  1
 14 36  1  0
 15 16  2  0
 15 21  1  0
 16 17  1  0
 16 37  1  0
 17 18  1  0
 17 19  2  0
 19 20  1  0
 19 38  1  0
 20 21  2  0
 20 39  1  0
 21 22  1  0
 22 23  1  0
 22 40  1  6
 22 41  1  0
 24 23  1  6
 23 42  1  0
 24 25  2  0
 24 26  2  0
 24 27  1  0
 27 43  1  1
 27 44  1  0
 27 45  1  0
M  END
$$$$
