LIG(A-305)
     RDKit          3D

 39 42  0  0  1  0  0  0  0  0999 V2000
   13.7305   -2.0192   21.0649 Cl  0  0  0  0  0  0  0  0  0  0  0  0
   12.7797   -0.8841   21.9839 C   0  0  0  0  0  0  0  0  0  0  0  0
   13.4179    0.1459   22.6449 C   0  0  0  0  0  0  0  0  0  0  0  0
   12.6750    1.0020   23.4389 C   0  0  0  0  0  0  0  0  0  0  0  0
   11.4157   -1.0719   22.0770 C   0  0  0  0  0  0  0  0  0  0  0  0
   10.6568   -0.2198   22.8770 C   0  0  0  0  0  0  0  0  0  0  0  0
   11.3070    0.8051   23.5560 C   0  0  0  0  0  0  0  0  0  0  0  0
   10.6372    1.6192   24.4270 O   0  0  0  0  0  0  0  0  0  0  0  0
    9.7111    0.8774   25.2381 C   0  0  1  0  0  0  0  0  0  0  0  0
    8.6300    0.1855   24.4371 C   0  0  1  0  0  0  0  0  0  0  0  0
    9.1588   -0.3656   23.0681 C   0  0  1  0  0  0  0  0  0  0  0  0
    8.3979    0.2875   21.9131 C   0  0  0  0  0  0  0  0  0  0  0  0
    8.9299    1.0824   21.1401 O   0  0  0  0  0  0  0  0  0  0  0  0
    7.0758   -0.0433   21.8392 N   0  0  0  0  0  0  0  0  0  0  0  0
    6.1209    0.6678   21.0953 C   0  0  0  0  0  0  0  0  0  0  0  0
    5.1450    1.4099   21.7323 C   0  0  0  0  0  0  0  0  0  0  0  0
    5.0531    1.5589   23.2283 C   0  0  1  0  0  0  0  0  0  0  0  0
    6.2408    0.5928   19.6842 C   0  0  0  0  0  0  0  0  0  0  0  0
    7.0767   -0.0133   18.8552 N   0  0  0  0  0  0  0  0  0  0  0  0
    6.6926    0.3447   17.5652 N   0  0  0  0  0  0  0  0  0  0  0  0
    5.6547    1.1308   17.6573 C   0  0  0  0  0  0  0  0  0  0  0  0
    5.3138    1.3229   18.9593 N   0  0  0  0  0  0  0  0  0  0  0  0
    4.3110    2.0550   19.5613 C   0  0  0  0  0  0  0  0  0  0  0  0
    4.2020    2.1060   20.8973 C   0  0  0  0  0  0  0  0  0  0  0  0
   14.4844    0.2821   22.5436 H   0  0  0  0  0  0  0  0  0  0  0  0
   13.1557    1.8153   23.9622 H   0  0  0  0  0  0  0  0  0  0  0  0
   10.9393   -1.8742   21.5332 H   0  0  0  0  0  0  0  0  0  0  0  0
   10.2719    0.1147   25.7983 H   0  0  0  0  0  0  0  0  0  0  0  0
    9.2317    1.5719   25.9436 H   0  0  0  0  0  0  0  0  0  0  0  0
    8.2363   -0.6550   25.0276 H   0  0  0  0  0  0  0  0  0  0  0  0
    7.8218    0.9051   24.2395 H   0  0  0  0  0  0  0  0  0  0  0  0
    8.9269   -1.4406   23.0460 H   0  0  0  0  0  0  0  0  0  0  0  0
    6.7666   -0.8460   22.3491 H   0  0  0  0  0  0  0  0  0  0  0  0
    5.9759    2.0213   23.6086 H   0  0  0  0  0  0  0  0  0  0  0  0
    4.1927    2.1961   23.4810 H   0  0  0  0  0  0  0  0  0  0  0  0
    4.9232    0.5681   23.6881 H   0  0  0  0  0  0  0  0  0  0  0  0
    5.1383    1.5682   16.8156 H   0  0  0  0  0  0  0  0  0  0  0  0
    3.6040    2.5944   18.9484 H   0  0  0  0  0  0  0  0  0  0  0  0
    3.4016    2.6731   21.3492 H   0  0  0  0  0  0  0  0  0  0  0  0
  1  2  1  0
  2  3  2  0
  2  5  1  0
  3  4  1  0
  3 25  1  0
  4  7  2  0
  4 26  1  0
  5  6  2  0
  5 27  1  0
  6  7  1  0
  6 11  1  0
  7  8  1  0
  8  9  1  0
  9 10  1  0
  9 28  1  1
  9 29  1  0
 10 11  1  0
 10 30  1  1
 10 31  1  0
 11 12  1  0
 11 32  1  1
 12 13  2  0
 12 14  1  0
 14 15  1  0
 14 33  1  0
 15 16  2  0
 15 18  1  0
 16 17  1  0
 16 24  1  0
 17 34  1  1
 17 35  1  0
 17 36  1  0
 18 19  2  0
 18 22  1  0
 19 20  1  0
 20 21  2  0
 21 22  1  0
 21 37  1  0
 22 23  1  0
 23 24  2  0
 23 38  1  0
 24 39  1  0
M  END
$$$$
