LIG(A-306)
     RDKit          3D

 35 37  0  0  0  0  0  0  0  0999 V2000
  -12.8877    0.9789  -26.2315 N   0  0  0  0  0  0  0  0  0  0  0  0
  -12.5592    0.3530  -25.3392 C   0  0  0  0  0  0  0  0  0  0  0  0
  -12.1840   -0.4333  -24.1939 C   0  0  0  0  0  0  0  0  0  0  0  0
  -13.1701   -0.9526  -23.3603 C   0  0  0  0  0  0  0  0  0  0  0  0
  -12.7867   -1.6721  -22.2483 C   0  0  0  0  0  0  0  0  0  0  0  0
  -14.0154   -2.3301  -21.2010 Cl  0  0  0  0  0  0  0  0  0  0  0  0
  -10.8374   -0.6360  -23.9003 C   0  0  0  0  0  0  0  0  0  0  0  0
  -10.4681   -1.3526  -22.7663 C   0  0  0  0  0  0  0  0  0  0  0  0
  -11.4559   -1.8802  -21.9405 C   0  0  0  0  0  0  0  0  0  0  0  0
   -9.0065   -1.5488  -22.4293 C   0  0  1  0  0  0  0  0  0  0  0  0
   -8.4790   -0.5695  -21.3987 C   0  0  0  0  0  0  0  0  0  0  0  0
   -8.7304    0.6355  -21.4557 O   0  0  0  0  0  0  0  0  0  0  0  0
   -7.7984   -1.1499  -20.3837 N   0  0  0  0  0  0  0  0  0  0  0  0
   -6.7671   -0.6570  -19.5576 C   0  0  0  0  0  0  0  0  0  0  0  0
   -5.8367    0.3226  -20.0360 C   0  0  0  0  0  0  0  0  0  0  0  0
   -5.4439    0.4446  -21.3953 C   0  0  0  0  0  0  0  0  0  0  0  0
   -4.4616    1.3162  -21.7707 C   0  0  0  0  0  0  0  0  0  0  0  0
   -3.8315    2.1197  -20.8311 C   0  0  0  0  0  0  0  0  0  0  0  0
   -4.1661    2.0383  -19.5109 C   0  0  0  0  0  0  0  0  0  0  0  0
   -5.1626    1.1293  -19.0736 C   0  0  0  0  0  0  0  0  0  0  0  0
   -5.4440    0.8988  -17.7096 C   0  0  0  0  0  0  0  0  0  0  0  0
   -6.2548   -0.0467  -17.2653 N   0  0  0  0  0  0  0  0  0  0  0  0
   -6.8715   -0.8070  -18.1749 C   0  0  0  0  0  0  0  0  0  0  0  0
  -14.2156   -0.7951  -23.5803 H   0  0  0  0  0  0  0  0  0  0  0  0
  -10.0776   -0.2356  -24.5551 H   0  0  0  0  0  0  0  0  0  0  0  0
  -11.1838   -2.4492  -21.0638 H   0  0  0  0  0  0  0  0  0  0  0  0
   -8.8747   -2.5685  -22.0380 H   0  0  0  0  0  0  0  0  0  0  0  0
   -8.4191   -1.4313  -23.3518 H   0  0  0  0  0  0  0  0  0  0  0  0
   -8.0740   -2.0904  -20.1850 H   0  0  0  0  0  0  0  0  0  0  0  0
   -5.9301   -0.1622  -22.1449 H   0  0  0  0  0  0  0  0  0  0  0  0
   -4.1724    1.3807  -22.8093 H   0  0  0  0  0  0  0  0  0  0  0  0
   -3.0690    2.8159  -21.1479 H   0  0  0  0  0  0  0  0  0  0  0  0
   -3.6674    2.6720  -18.7924 H   0  0  0  0  0  0  0  0  0  0  0  0
   -4.9656    1.5365  -16.9810 H   0  0  0  0  0  0  0  0  0  0  0  0
   -7.5028   -1.6034  -17.8092 H   0  0  0  0  0  0  0  0  0  0  0  0
  1  2  3  0
  2  3  1  0
  3  4  2  0
  3  7  1  0
  4  5  1  0
  4 24  1  0
  5  6  1  0
  5  9  2  0
  7  8  2  0
  7 25  1  0
  8  9  1  0
  8 10  1  0
  9 26  1  0
 10 11  1  0
 10 27  1  1
 10 28  1  0
 11 12  2  0
 11 13  1  0
 13 14  1  0
 13 29  1  0
 14 15  2  0
 14 23  1  0
 15 16  1  0
 15 20  1  0
 16 17  2  0
 16 30  1  0
 17 18  1  0
 17 31  1  0
 18 19  2  0
 18 32  1  0
 19 20  1  0
 19 33  1  0
 20 21  2  0
 21 22  1  0
 21 34  1  0
 22 23  2  0
 23 35  1  0
M  END
$$$$
