LIG(A-307)
     RDKit          3D

 42 45  0  0  1  0  0  0  0  0999 V2000
   10.6641    1.2704   24.7454 O   0  0  0  0  0  0  0  0  0  0  0  0
    5.2388    1.1339   21.5813 C   0  0  0  0  0  0  0  0  0  0  0  0
    9.3767   -0.6161   22.8814 C   0  0  1  0  0  0  0  0  0  0  0  0
    4.1526    1.9497   21.7322 C   0  0  0  0  0  0  0  0  0  0  0  0
    3.5087    2.4792   20.6251 C   0  0  0  0  0  0  0  0  0  0  0  0
    3.9441    2.1885   19.3652 C   0  0  0  0  0  0  0  0  0  0  0  0
   14.1526   -1.6125   21.0376 Cl  0  0  0  0  0  0  0  0  0  0  0  0
    5.0583    1.3416   19.1624 C   0  0  0  0  0  0  0  0  0  0  0  0
    5.5683    1.0224   17.8793 C   0  0  0  0  0  0  0  0  0  0  0  0
    7.2760   -0.2110   18.7432 C   0  0  0  0  0  0  0  0  0  0  0  0
    9.3557    1.0799   21.1638 O   0  0  0  0  0  0  0  0  0  0  0  0
    6.8957    0.0124   20.0647 C   0  0  0  0  0  0  0  0  0  0  0  0
    8.7895    0.1046   21.6444 C   0  0  0  0  0  0  0  0  0  0  0  0
    9.0501   -2.0516   22.8347 N   0  0  1  0  0  0  0  0  0  0  0  0
    7.6337   -0.4239   21.1807 N   0  0  0  0  0  0  0  0  0  0  0  0
    5.7322    0.8079   20.2920 C   0  0  0  0  0  0  0  0  0  0  0  0
   10.8797   -0.3685   22.9579 C   0  0  0  0  0  0  0  0  0  0  0  0
   11.7473   -1.0776   22.1319 C   0  0  0  0  0  0  0  0  0  0  0  0
   13.0880   -0.7470   22.1130 C   0  0  0  0  0  0  0  0  0  0  0  0
   13.6028    0.2589   22.9055 C   0  0  0  0  0  0  0  0  0  0  0  0
   12.7621    0.9360   23.7687 C   0  0  0  0  0  0  0  0  0  0  0  0
   11.4149    0.6135   23.7984 C   0  0  0  0  0  0  0  0  0  0  0  0
    9.2444    1.3416   24.4721 C   0  0  1  0  0  0  0  0  0  0  0  0
    6.6368    0.2674   17.6675 N   0  0  0  0  0  0  0  0  0  0  0  0
    8.6611   -0.0085   24.1094 C   0  0  2  0  0  0  0  0  0  0  0  0
    5.7283    0.7319   22.4560 H   0  0  0  0  0  0  0  0  0  0  0  0
    3.7930    2.1838   22.7232 H   0  0  0  0  0  0  0  0  0  0  0  0
    2.6553    3.1270   20.7608 H   0  0  0  0  0  0  0  0  0  0  0  0
    3.4320    2.6101   18.5128 H   0  0  0  0  0  0  0  0  0  0  0  0
    5.0527    1.4203   17.0178 H   0  0  0  0  0  0  0  0  0  0  0  0
    8.1539   -0.8166   18.5729 H   0  0  0  0  0  0  0  0  0  0  0  0
    9.7710   -2.5729   23.2913 H   0  0  0  0  0  0  0  0  0  0  0  0
    8.1788   -2.2104   23.2992 H   0  0  0  0  0  0  0  0  0  0  0  0
    8.9783   -2.3461   21.8818 H   0  0  0  0  0  0  0  0  0  0  0  0
    7.2653   -1.2060   21.6835 H   0  0  0  0  0  0  0  0  0  0  0  0
   11.3751   -1.8792   21.5112 H   0  0  0  0  0  0  0  0  0  0  0  0
   14.6509    0.5141   22.8517 H   0  0  0  0  0  0  0  0  0  0  0  0
   13.1517    1.7093   24.4142 H   0  0  0  0  0  0  0  0  0  0  0  0
    8.7301    1.7202   25.3677 H   0  0  0  0  0  0  0  0  0  0  0  0
    9.0797    2.0348   23.6340 H   0  0  0  0  0  0  0  0  0  0  0  0
    8.7759   -0.6903   24.9650 H   0  0  0  0  0  0  0  0  0  0  0  0
    7.5926    0.1128   23.8780 H   0  0  0  0  0  0  0  0  0  0  0  0
  1 22  1  0
  1 23  1  0
  2  4  2  0
  2 16  1  0
  2 26  1  0
  3 13  1  6
  3 14  1  0
  3 17  1  0
  3 25  1  0
  4  5  1  0
  4 27  1  0
  5  6  2  0
  5 28  1  0
  6  8  1  0
  6 29  1  0
  7 19  1  0
  8  9  2  0
  8 16  1  0
  9 24  1  0
  9 30  1  0
 10 12  1  0
 10 24  2  0
 10 31  1  0
 11 13  2  0
 12 15  1  0
 12 16  2  0
 13 15  1  0
 14 32  1  1
 14 33  1  0
 14 34  1  0
 15 35  1  0
 17 18  2  0
 17 22  1  0
 18 19  1  0
 18 36  1  0
 19 20  2  0
 20 21  1  0
 20 37  1  0
 21 22  2  0
 21 38  1  0
 23 25  1  0
 23 39  1  1
 23 40  1  0
 25 41  1  1
 25 42  1  0
M  CHG  1  14   1
M  END
$$$$
