LIG(A-305)
     RDKit          3D

 37 38  0  0  0  0  0  0  0  0999 V2000
   14.0687   -1.5829   21.0149 Cl  0  0  0  0  0  0  0  0  0  0  0  0
   13.0148   -0.6689   22.0569 C   0  0  0  0  0  0  0  0  0  0  0  0
   13.5599    0.2761   22.9049 C   0  0  0  0  0  0  0  0  0  0  0  0
   12.7289    0.9032   23.8199 C   0  0  0  0  0  0  0  0  0  0  0  0
   11.3769    0.6002   23.8590 C   0  0  0  0  0  0  0  0  0  0  0  0
   11.6668   -0.9608   22.0610 C   0  0  0  0  0  0  0  0  0  0  0  0
   10.8268   -0.3188   22.9680 C   0  0  0  0  0  0  0  0  0  0  0  0
    9.3148   -0.5937   22.9241 C   0  0  1  0  0  0  0  0  0  0  0  0
    9.0748   -2.1137   22.9661 C   0  0  1  0  0  0  0  0  0  0  0  0
    8.5679    0.0323   24.1161 C   0  0  1  0  0  0  0  0  0  0  0  0
    8.7288    0.0433   21.6461 C   0  0  0  0  0  0  0  0  0  0  0  0
    9.2098    1.0693   21.1891 O   0  0  0  0  0  0  0  0  0  0  0  0
    7.6477   -0.5647   21.1052 N   0  0  0  0  0  0  0  0  0  0  0  0
    6.9107   -0.0466   20.0152 C   0  0  0  0  0  0  0  0  0  0  0  0
    5.6988    0.6254   20.2563 C   0  0  0  0  0  0  0  0  0  0  0  0
    5.1458    0.8024   21.6463 C   0  0  1  0  0  0  0  0  0  0  0  0
    7.3926   -0.1047   18.7092 C   0  0  0  0  0  0  0  0  0  0  0  0
    6.7836    0.4753   17.6702 N   0  0  0  0  0  0  0  0  0  0  0  0
    5.6317    1.1064   17.9103 C   0  0  0  0  0  0  0  0  0  0  0  0
    5.0557    1.1944   19.1613 C   0  0  0  0  0  0  0  0  0  0  0  0
   14.6107    0.5209   22.8557 H   0  0  0  0  0  0  0  0  0  0  0  0
   13.1367    1.6312   24.5056 H   0  0  0  0  0  0  0  0  0  0  0  0
   10.7427    1.0821   24.5884 H   0  0  0  0  0  0  0  0  0  0  0  0
   11.2650   -1.6826   21.3653 H   0  0  0  0  0  0  0  0  0  0  0  0
    7.9940   -2.3158   22.9349 H   0  0  0  0  0  0  0  0  0  0  0  0
    9.5610   -2.5856   22.0997 H   0  0  0  0  0  0  0  0  0  0  0  0
    9.4981   -2.5261   23.8939 H   0  0  0  0  0  0  0  0  0  0  0  0
    7.4943   -0.1934   24.0363 H   0  0  0  0  0  0  0  0  0  0  0  0
    8.9612   -0.3846   25.0550 H   0  0  0  0  0  0  0  0  0  0  0  0
    8.7148    1.1224   24.1090 H   0  0  0  0  0  0  0  0  0  0  0  0
    7.3517   -1.4341   21.5007 H   0  0  0  0  0  0  0  0  0  0  0  0
    5.8647    1.3672   22.2583 H   0  0  0  0  0  0  0  0  0  0  0  0
    4.1953    1.3537   21.5952 H   0  0  0  0  0  0  0  0  0  0  0  0
    4.9734   -0.1844   22.1006 H   0  0  0  0  0  0  0  0  0  0  0  0
    8.3080   -0.6478   18.5263 H   0  0  0  0  0  0  0  0  0  0  0  0
    5.1228    1.5734   17.0800 H   0  0  0  0  0  0  0  0  0  0  0  0
    4.1111    1.7022   19.2897 H   0  0  0  0  0  0  0  0  0  0  0  0
  1  2  1  0
  2  3  2  0
  2  6  1  0
  3  4  1  0
  3 21  1  0
  4  5  2  0
  4 22  1  0
  5  7  1  0
  5 23  1  0
  6  7  2  0
  6 24  1  0
  7  8  1  0
  8  9  1  0
  8 10  1  0
  8 11  1  6
  9 25  1  6
  9 26  1  0
  9 27  1  0
 10 28  1  6
 10 29  1  0
 10 30  1  0
 11 12  2  0
 11 13  1  0
 13 14  1  0
 13 31  1  0
 14 15  2  0
 14 17  1  0
 15 16  1  0
 15 20  1  0
 16 32  1  1
 16 33  1  0
 16 34  1  0
 17 18  2  0
 17 35  1  0
 18 19  1  0
 19 20  2  0
 19 36  1  0
 20 37  1  0
M  END
$$$$
