LIG(A-305)
     RDKit          3D

 34 35  0  0  0  0  0  0  0  0999 V2000
   13.6312   -1.9270   21.3351 Cl  0  0  0  0  0  0  0  0  0  0  0  0
   12.4703   -1.0539   22.2981 C   0  0  0  0  0  0  0  0  0  0  0  0
   12.9153   -0.1159   23.2050 C   0  0  0  0  0  0  0  0  0  0  0  0
   11.9873    0.5072   24.0250 C   0  0  0  0  0  0  0  0  0  0  0  0
   10.6383    0.2122   23.9021 C   0  0  0  0  0  0  0  0  0  0  0  0
   11.1283   -1.3519   22.1591 C   0  0  0  0  0  0  0  0  0  0  0  0
   10.1923   -0.6988   22.9551 C   0  0  0  0  0  0  0  0  0  0  0  0
    8.7153   -0.9078   22.7142 C   0  0  1  0  0  0  0  0  0  0  0  0
    8.2173   -0.0939   21.5351 C   0  0  0  0  0  0  0  0  0  0  0  0
    8.8603    0.8511   21.0821 O   0  0  0  0  0  0  0  0  0  0  0  0
    7.0273   -0.4999   21.0312 N   0  0  0  0  0  0  0  0  0  0  0  0
    6.3613    0.1491   19.9461 C   0  0  0  0  0  0  0  0  0  0  0  0
    5.3183    1.0411   20.2201 C   0  0  0  0  0  0  0  0  0  0  0  0
    4.8663    1.3382   21.6271 C   0  0  1  0  0  0  0  0  0  0  0  0
    6.7662   -0.0800   18.6161 C   0  0  0  0  0  0  0  0  0  0  0  0
    7.8822   -1.0131   18.2542 C   0  0  1  0  0  0  0  0  0  0  0  0
    6.1602    0.5479   17.6011 N   0  0  0  0  0  0  0  0  0  0  0  0
    5.1572    1.3950   17.8691 C   0  0  0  0  0  0  0  0  0  0  0  0
    4.7123    1.6640   19.1411 C   0  0  0  0  0  0  0  0  0  0  0  0
   13.9649    0.1285   23.2752 H   0  0  0  0  0  0  0  0  0  0  0  0
   12.3164    1.2247   24.7621 H   0  0  0  0  0  0  0  0  0  0  0  0
    9.9252    0.6978   24.5517 H   0  0  0  0  0  0  0  0  0  0  0  0
   10.8075   -2.0877   21.4366 H   0  0  0  0  0  0  0  0  0  0  0  0
    8.5346   -1.9740   22.5127 H   0  0  0  0  0  0  0  0  0  0  0  0
    8.1611   -0.6057   23.6151 H   0  0  0  0  0  0  0  0  0  0  0  0
    6.5897   -1.2997   21.4420 H   0  0  0  0  0  0  0  0  0  0  0  0
    5.7047    1.7599   22.2008 H   0  0  0  0  0  0  0  0  0  0  0  0
    4.0389    2.0627   21.6011 H   0  0  0  0  0  0  0  0  0  0  0  0
    4.5250    0.4088   22.1063 H   0  0  0  0  0  0  0  0  0  0  0  0
    8.2999   -1.4583   19.1692 H   0  0  0  0  0  0  0  0  0  0  0  0
    7.4964   -1.8103   17.6017 H   0  0  0  0  0  0  0  0  0  0  0  0
    8.6693   -0.4554   17.7256 H   0  0  0  0  0  0  0  0  0  0  0  0
    4.6729    1.8924   17.0418 H   0  0  0  0  0  0  0  0  0  0  0  0
    3.8973    2.3551   19.2982 H   0  0  0  0  0  0  0  0  0  0  0  0
  1  2  1  0
  2  3  2  0
  2  6  1  0
  3  4  1  0
  3 20  1  0
  4  5  2  0
  4 21  1  0
  5  7  1  0
  5 22  1  0
  6  7  2  0
  6 23  1  0
  7  8  1  0
  8  9  1  0
  8 24  1  6
  8 25  1  0
  9 10  2  0
  9 11  1  0
 11 12  1  0
 11 26  1  0
 12 13  2  0
 12 15  1  0
 13 14  1  0
 13 19  1  0
 14 27  1  1
 14 28  1  0
 14 29  1  0
 15 16  1  0
 15 17  2  0
 16 30  1  1
 16 31  1  0
 16 32  1  0
 17 18  1  0
 18 19  2  0
 18 33  1  0
 19 34  1  0
M  END
$$$$
