LIG(A-306)
     RDKit          3D

 58 61  0  0  1  0  0  0  0  0999 V2000
   -9.9084    0.6658  -20.8939 O   0  0  0  0  0  0  0  0  0  0  0  0
   -9.3210   -0.2374  -21.4711 C   0  0  0  0  0  0  0  0  0  0  0  0
   -8.1083   -0.6822  -21.0700 N   0  0  0  0  0  0  0  0  0  0  0  0
   -7.3507   -0.1921  -19.9894 C   0  0  0  0  0  0  0  0  0  0  0  0
   -6.2417    0.6702  -20.2604 C   0  0  0  0  0  0  0  0  0  0  0  0
   -5.8343    1.0478  -21.5676 C   0  0  0  0  0  0  0  0  0  0  0  0
   -4.7862    1.9048  -21.7571 C   0  0  0  0  0  0  0  0  0  0  0  0
   -4.0961    2.4300  -20.6715 C   0  0  0  0  0  0  0  0  0  0  0  0
   -4.4469    2.0925  -19.3954 C   0  0  0  0  0  0  0  0  0  0  0  0
   -5.5245    1.2040  -19.1546 C   0  0  0  0  0  0  0  0  0  0  0  0
   -5.9536    0.8393  -17.8553 C   0  0  0  0  0  0  0  0  0  0  0  0
   -6.9820    0.0433  -17.6053 N   0  0  0  0  0  0  0  0  0  0  0  0
   -7.6513   -0.4533  -18.6529 C   0  0  0  0  0  0  0  0  0  0  0  0
   -9.9117   -0.8757  -22.7510 C   0  0  1  0  0  0  0  0  0  0  0  0
  -11.4317   -0.7183  -22.7194 C   0  0  0  0  0  0  0  0  0  0  0  0
  -12.2327   -1.5357  -21.9242 C   0  0  0  0  0  0  0  0  0  0  0  0
  -13.6045   -1.3575  -21.9364 C   0  0  0  0  0  0  0  0  0  0  0  0
  -14.5788   -2.2233  -20.7780 Cl  0  0  0  0  0  0  0  0  0  0  0  0
  -14.2108   -0.4286  -22.7549 C   0  0  0  0  0  0  0  0  0  0  0  0
  -13.4276    0.3799  -23.5556 C   0  0  0  0  0  0  0  0  0  0  0  0
  -12.0519    0.2383  -23.5221 C   0  0  0  0  0  0  0  0  0  0  0  0
  -11.3408    1.0937  -24.3219 O   0  0  0  0  0  0  0  0  0  0  0  0
  -10.1952    0.4715  -24.9064 C   0  0  1  0  0  0  0  0  0  0  0  0
   -9.2211   -0.0457  -23.8631 C   0  0  2  0  0  0  0  0  0  0  0  0
   -9.5210   -2.3691  -22.8055 C   0  0  1  0  0  0  0  0  0  0  0  0
   -9.8832   -3.0534  -24.0348 N   0  0  0  0  0  0  0  0  0  0  0  0
   -9.4394   -4.2789  -24.3045 C   0  0  0  0  0  0  0  0  0  0  0  0
   -8.6390   -4.8705  -23.5819 O   0  0  0  0  0  0  0  0  0  0  0  0
  -10.0541   -4.9522  -25.5222 C   0  0  1  0  0  0  0  0  0  0  0  0
   -9.2791   -4.8155  -26.7604 N   0  0  2  0  0  0  0  0  0  0  0  0
   -9.9972   -5.4067  -27.8851 C   0  0  1  0  0  0  0  0  0  0  0  0
   -7.9666   -5.4437  -26.6264 C   0  0  1  0  0  0  0  0  0  0  0  0
   -7.7097   -1.4349  -21.5939 H   0  0  0  0  0  0  0  0  0  0  0  0
   -6.3600    0.6522  -22.4240 H   0  0  0  0  0  0  0  0  0  0  0  0
   -4.4917    2.1762  -22.7602 H   0  0  0  0  0  0  0  0  0  0  0  0
   -3.2749    3.1113  -20.8382 H   0  0  0  0  0  0  0  0  0  0  0  0
   -3.8982    2.5063  -18.5624 H   0  0  0  0  0  0  0  0  0  0  0  0
   -5.4064    1.2365  -17.0131 H   0  0  0  0  0  0  0  0  0  0  0  0
   -8.4873   -1.1054  -18.4476 H   0  0  0  0  0  0  0  0  0  0  0  0
  -11.7871   -2.3002  -21.3049 H   0  0  0  0  0  0  0  0  0  0  0  0
  -15.2866   -0.3340  -22.7700 H   0  0  0  0  0  0  0  0  0  0  0  0
  -13.8847    1.1152  -24.2011 H   0  0  0  0  0  0  0  0  0  0  0  0
  -10.5300   -0.3733  -25.5264 H   0  0  0  0  0  0  0  0  0  0  0  0
   -9.6774    1.2079  -25.5387 H   0  0  0  0  0  0  0  0  0  0  0  0
   -8.4757   -0.6812  -24.3635 H   0  0  0  0  0  0  0  0  0  0  0  0
   -8.7167    0.8138  -23.3975 H   0  0  0  0  0  0  0  0  0  0  0  0
   -8.4303   -2.4412  -22.6832 H   0  0  0  0  0  0  0  0  0  0  0  0
  -10.0184   -2.8827  -21.9695 H   0  0  0  0  0  0  0  0  0  0  0  0
  -10.4792   -2.5934  -24.6930 H   0  0  0  0  0  0  0  0  0  0  0  0
  -10.1605   -6.0248  -25.3023 H   0  0  0  0  0  0  0  0  0  0  0  0
  -11.0480   -4.5121  -25.6908 H   0  0  0  0  0  0  0  0  0  0  0  0
   -9.1472   -3.8415  -26.9446 H   0  0  0  0  0  0  0  0  0  0  0  0
   -9.4003   -5.2938  -28.8021 H   0  0  0  0  0  0  0  0  0  0  0  0
  -10.1694   -6.4753  -27.6891 H   0  0  0  0  0  0  0  0  0  0  0  0
  -10.9636   -4.8967  -28.0118 H   0  0  0  0  0  0  0  0  0  0  0  0
   -7.4063   -5.3278  -27.5658 H   0  0  0  0  0  0  0  0  0  0  0  0
   -7.4120   -4.9629  -25.8071 H   0  0  0  0  0  0  0  0  0  0  0  0
   -8.0933   -6.5137  -26.4048 H   0  0  0  0  0  0  0  0  0  0  0  0
  1  2  2  0
  2  3  1  0
 14  2  1  1
  3  4  1  0
  3 33  1  0
  4  5  2  0
  4 13  1  0
  5  6  1  0
  5 10  1  0
  6  7  2  0
  6 34  1  0
  7  8  1  0
  7 35  1  0
  8  9  2  0
  8 36  1  0
  9 10  1  0
  9 37  1  0
 10 11  2  0
 11 12  1  0
 11 38  1  0
 12 13  2  0
 13 39  1  0
 14 15  1  0
 14 24  1  0
 14 25  1  0
 15 16  2  0
 15 21  1  0
 16 17  1  0
 16 40  1  0
 17 18  1  0
 17 19  2  0
 19 20  1  0
 19 41  1  0
 20 21  2  0
 20 42  1  0
 21 22  1  0
 22 23  1  0
 23 24  1  0
 23 43  1  6
 23 44  1  0
 24 45  1  6
 24 46  1  0
 25 26  1  0
 25 47  1  1
 25 48  1  0
 26 27  1  0
 26 49  1  0
 27 28  2  0
 27 29  1  0
 29 30  1  0
 29 50  1  1
 29 51  1  0
 30 31  1  0
 30 32  1  0
 30 52  1  6
 31 53  1  6
 31 54  1  0
 31 55  1  0
 32 56  1  6
 32 57  1  0
 32 58  1  0
M  CHG  1  30   1
M  END
$$$$
