LIG(A-305)
     RDKit          3D

 32 31  0  0  1  0  0  0  0  0999 V2000
    4.6387   -4.4238   23.4520 O   0  0  0  0  0  0  0  0  0  0  0  0
    4.5648   -5.5148   22.8890 C   0  0  0  0  0  0  0  0  0  0  0  0
    5.4978   -5.9428   22.0170 N   0  0  0  0  0  0  0  0  0  0  0  0
    6.6628   -5.1367   21.6300 C   0  0  1  0  0  0  0  0  0  0  0  0
    6.8048   -4.6318   20.1090 C   0  0  1  0  0  0  0  0  0  0  0  0
    5.7658   -4.8688   19.4940 C   0  0  1  0  0  0  0  0  0  0  0  0
    3.3358   -6.4068   23.1190 C   0  0  1  0  0  0  0  0  0  0  0  0
    3.3758   -7.0608   24.5130 C   0  0  2  0  0  0  0  0  0  0  0  0
    4.5678   -7.8297   24.6420 O   0  0  0  0  0  0  0  0  0  0  0  0
    2.1868   -7.9608   24.7820 C   0  0  1  0  0  0  0  0  0  0  0  0
    2.1378   -5.5769   23.0429 N   0  0  0  0  0  0  0  0  0  0  0  0
    1.0088   -5.9629   22.4229 C   0  0  0  0  0  0  0  0  0  0  0  0
    0.9359   -7.0149   21.7879 O   0  0  0  0  0  0  0  0  0  0  0  0
   -0.1592   -5.0269   22.5449 C   0  0  1  0  0  0  0  0  0  0  0  0
    5.3924   -6.8520   21.6142 H   0  0  0  0  0  0  0  0  0  0  0  0
    6.6570   -4.2393   22.2662 H   0  0  0  0  0  0  0  0  0  0  0  0
    7.5565   -5.7381   21.8526 H   0  0  0  0  0  0  0  0  0  0  0  0
    6.9960   -3.5486   20.0999 H   0  0  0  0  0  0  0  0  0  0  0  0
    7.6428   -5.1560   19.6265 H   0  0  0  0  0  0  0  0  0  0  0  0
    5.8670   -4.5222   18.4550 H   0  0  0  0  0  0  0  0  0  0  0  0
    5.5741   -5.9519   19.5020 H   0  0  0  0  0  0  0  0  0  0  0  0
    4.9272   -4.3444   19.9754 H   0  0  0  0  0  0  0  0  0  0  0  0
    3.3072   -7.1927   22.3498 H   0  0  0  0  0  0  0  0  0  0  0  0
    3.3757   -6.2571   25.2640 H   0  0  0  0  0  0  0  0  0  0  0  0
    5.3150   -7.2472   24.7120 H   0  0  0  0  0  0  0  0  0  0  0  0
    2.2751   -8.3948   25.7889 H   0  0  0  0  0  0  0  0  0  0  0  0
    1.2596   -7.3726   24.7164 H   0  0  0  0  0  0  0  0  0  0  0  0
    2.1623   -8.7685   24.0356 H   0  0  0  0  0  0  0  0  0  0  0  0
    2.1575   -4.6747   23.4740 H   0  0  0  0  0  0  0  0  0  0  0  0
   -1.0192   -5.4397   21.9971 H   0  0  0  0  0  0  0  0  0  0  0  0
   -0.4237   -4.9071   23.6059 H   0  0  0  0  0  0  0  0  0  0  0  0
    0.1097   -4.0480   22.1212 H   0  0  0  0  0  0  0  0  0  0  0  0
  1  2  2  0
  2  3  1  0
  2  7  1  0
  3  4  1  0
  3 15  1  0
  4  5  1  0
  4 16  1  1
  4 17  1  0
  5  6  1  0
  5 18  1  1
  5 19  1  0
  6 20  1  6
  6 21  1  0
  6 22  1  0
  7  8  1  0
  7 11  1  0
  7 23  1  6
  8  9  1  0
  8 10  1  0
  8 24  1  1
  9 25  1  0
 10 26  1  1
 10 27  1  0
 10 28  1  0
 11 12  1  0
 11 29  1  0
 12 13  2  0
 12 14  1  0
 14 30  1  6
 14 31  1  0
 14 32  1  0
M  END
$$$$
