LIG(A-306)
     RDKit          3D

 40 43  0  0  1  0  0  0  0  0999 V2000
   -9.9548    0.8466  -21.0844 O   0  0  0  0  0  0  0  0  0  0  0  0
   -9.4641   -0.1910  -21.5133 C   0  0  0  0  0  0  0  0  0  0  0  0
  -10.1660   -1.0181  -22.6604 C   0  0  1  0  0  0  0  0  0  0  0  0
  -11.6764   -0.8347  -22.5849 C   0  0  0  0  0  0  0  0  0  0  0  0
  -12.4657   -1.6582  -21.7850 C   0  0  0  0  0  0  0  0  0  0  0  0
  -13.8280   -1.4383  -21.7258 C   0  0  0  0  0  0  0  0  0  0  0  0
  -14.7978   -2.4535  -20.6911 Cl  0  0  0  0  0  0  0  0  0  0  0  0
  -14.4371   -0.4201  -22.4342 C   0  0  0  0  0  0  0  0  0  0  0  0
  -13.6678    0.4014  -23.2375 C   0  0  0  0  0  0  0  0  0  0  0  0
  -12.3021    0.1772  -23.3277 C   0  0  0  0  0  0  0  0  0  0  0  0
  -11.6468    0.9362  -24.2693 O   0  0  0  0  0  0  0  0  0  0  0  0
  -10.2037    0.8496  -24.3027 C   0  0  1  0  0  0  0  0  0  0  0  0
   -9.6889   -0.5494  -24.0388 C   0  0  2  0  0  0  0  0  0  0  0  0
   -9.8370   -2.4029  -22.5512 O   0  0  0  0  0  0  0  0  0  0  0  0
   -8.3213   -0.7156  -21.0237 N   0  0  0  0  0  0  0  0  0  0  0  0
   -7.5399   -0.2326  -19.9608 C   0  0  0  0  0  0  0  0  0  0  0  0
   -6.4369    0.6262  -20.2568 C   0  0  0  0  0  0  0  0  0  0  0  0
   -6.0568    0.9953  -21.5721 C   0  0  0  0  0  0  0  0  0  0  0  0
   -4.9839    1.8139  -21.7887 C   0  0  0  0  0  0  0  0  0  0  0  0
   -4.2419    2.3051  -20.7250 C   0  0  0  0  0  0  0  0  0  0  0  0
   -4.5698    1.9820  -19.4388 C   0  0  0  0  0  0  0  0  0  0  0  0
   -5.6761    1.1367  -19.1679 C   0  0  0  0  0  0  0  0  0  0  0  0
   -6.0694    0.7688  -17.8603 C   0  0  0  0  0  0  0  0  0  0  0  0
   -7.0980   -0.0218  -17.5852 N   0  0  0  0  0  0  0  0  0  0  0  0
   -7.8004   -0.5077  -18.6180 C   0  0  0  0  0  0  0  0  0  0  0  0
  -12.0171   -2.4600  -21.2173 H   0  0  0  0  0  0  0  0  0  0  0  0
  -15.5038   -0.2674  -22.3610 H   0  0  0  0  0  0  0  0  0  0  0  0
  -14.1257    1.2093  -23.7890 H   0  0  0  0  0  0  0  0  0  0  0  0
   -9.8563    1.1693  -25.2962 H   0  0  0  0  0  0  0  0  0  0  0  0
   -9.7942    1.5241  -23.5365 H   0  0  0  0  0  0  0  0  0  0  0  0
  -10.0717   -1.2327  -24.8111 H   0  0  0  0  0  0  0  0  0  0  0  0
   -8.5892   -0.5462  -24.0645 H   0  0  0  0  0  0  0  0  0  0  0  0
   -9.8647   -2.6644  -21.6383 H   0  0  0  0  0  0  0  0  0  0  0  0
   -7.9914   -1.5471  -21.4705 H   0  0  0  0  0  0  0  0  0  0  0  0
   -6.6226    0.6245  -22.4141 H   0  0  0  0  0  0  0  0  0  0  0  0
   -4.7112    2.0811  -22.7990 H   0  0  0  0  0  0  0  0  0  0  0  0
   -3.3965    2.9495  -20.9154 H   0  0  0  0  0  0  0  0  0  0  0  0
   -3.9819    2.3732  -18.6216 H   0  0  0  0  0  0  0  0  0  0  0  0
   -5.4950    1.1568  -17.0321 H   0  0  0  0  0  0  0  0  0  0  0  0
   -8.6304   -1.1614  -18.3941 H   0  0  0  0  0  0  0  0  0  0  0  0
  1  2  2  0
  2  3  1  0
  2 15  1  0
  3  4  1  0
  3 13  1  0
  3 14  1  1
  4  5  2  0
  4 10  1  0
  5  6  1  0
  5 26  1  0
  6  7  1  0
  6  8  2  0
  8  9  1  0
  8 27  1  0
  9 10  2  0
  9 28  1  0
 10 11  1  0
 11 12  1  0
 12 13  1  0
 12 29  1  6
 12 30  1  0
 13 31  1  6
 13 32  1  0
 14 33  1  0
 15 16  1  0
 15 34  1  0
 16 17  2  0
 16 25  1  0
 17 18  1  0
 17 22  1  0
 18 19  2  0
 18 35  1  0
 19 20  1  0
 19 36  1  0
 20 21  2  0
 20 37  1  0
 21 22  1  0
 21 38  1  0
 22 23  2  0
 23 24  1  0
 23 39  1  0
 24 25  2  0
 25 40  1  0
M  END
$$$$
