LIG(A-306)
     RDKit          3D

 55 58  0  0  1  0  0  0  0  0999 V2000
   13.9974   -1.5375   21.3413 Cl  0  0  0  0  0  0  0  0  0  0  0  0
   12.8343   -0.7945   22.4052 C   0  0  0  0  0  0  0  0  0  0  0  0
   11.4990   -1.1352   22.2925 C   0  0  0  0  0  0  0  0  0  0  0  0
   13.2628    0.1512   23.3070 C   0  0  0  0  0  0  0  0  0  0  0  0
   12.3355    0.7647   24.1258 C   0  0  0  0  0  0  0  0  0  0  0  0
   10.9779    0.4693   24.0271 C   0  0  0  0  0  0  0  0  0  0  0  0
   10.0186    1.2169   24.9200 C   0  0  1  0  0  0  0  0  0  0  0  0
    8.6332    1.0084   24.4843 N   0  0  0  0  0  0  0  0  0  0  0  0
    7.5466    1.9130   25.2314 S   0  0  2  0  0  0  0  0  0  0  0  0
    7.9241    1.9673   26.5997 O   0  0  0  0  0  0  0  0  0  0  0  0
    6.2544    1.4560   24.8552 O   0  0  0  0  0  0  0  0  0  0  0  0
    7.7986    3.3544   24.5770 N   0  0  0  0  0  0  0  0  0  0  0  0
    7.7381    3.6999   23.1395 C   0  0  1  0  0  0  0  0  0  0  0  0
    6.3704    4.2236   22.7154 C   0  0  1  0  0  0  0  0  0  0  0  0
    6.4094    5.6507   22.3761 C   0  0  0  0  0  0  0  0  0  0  0  0
    6.4073    6.7653   22.1329 N   0  0  0  0  0  0  0  0  0  0  0  0
    8.2569    4.4509   25.4360 C   0  0  1  0  0  0  0  0  0  0  0  0
   10.5502   -0.4901   23.0915 C   0  0  0  0  0  0  0  0  0  0  0  0
    9.0697   -0.8066   22.9465 C   0  0  1  0  0  0  0  0  0  0  0  0
    8.3060   -0.4033   24.2085 C   0  0  2  0  0  0  0  0  0  0  0  0
    8.5039   -0.0467   21.7420 C   0  0  0  0  0  0  0  0  0  0  0  0
    9.0391    0.9733   21.3006 O   0  0  0  0  0  0  0  0  0  0  0  0
    7.3693   -0.5781   21.2141 N   0  0  0  0  0  0  0  0  0  0  0  0
    6.6275   -0.1137   20.0954 C   0  0  0  0  0  0  0  0  0  0  0  0
    5.4615    0.6844   20.3211 C   0  0  0  0  0  0  0  0  0  0  0  0
    4.8920    0.9044   21.6008 C   0  0  0  0  0  0  0  0  0  0  0  0
    3.7983    1.7055   21.7538 C   0  0  0  0  0  0  0  0  0  0  0  0
    3.2223    2.3379   20.6588 C   0  0  0  0  0  0  0  0  0  0  0  0
    3.7184    2.1429   19.4011 C   0  0  0  0  0  0  0  0  0  0  0  0
    4.8385    1.2998   19.1941 C   0  0  0  0  0  0  0  0  0  0  0  0
    5.3801    1.0364   17.9131 C   0  0  0  0  0  0  0  0  0  0  0  0
    6.4365    0.2662   17.6983 N   0  0  0  0  0  0  0  0  0  0  0  0
    7.0305   -0.2817   18.7678 C   0  0  0  0  0  0  0  0  0  0  0  0
   11.1904   -1.8958   21.5908 H   0  0  0  0  0  0  0  0  0  0  0  0
   14.3092    0.4102   23.3739 H   0  0  0  0  0  0  0  0  0  0  0  0
   12.6690    1.4871   24.8562 H   0  0  0  0  0  0  0  0  0  0  0  0
   10.1304    0.8552   25.9529 H   0  0  0  0  0  0  0  0  0  0  0  0
   10.2515    2.2912   24.8806 H   0  0  0  0  0  0  0  0  0  0  0  0
    8.4909    4.4746   22.9322 H   0  0  0  0  0  0  0  0  0  0  0  0
    7.9675    2.7990   22.5515 H   0  0  0  0  0  0  0  0  0  0  0  0
    6.0311    3.6584   21.8348 H   0  0  0  0  0  0  0  0  0  0  0  0
    5.6608    4.0743   23.5425 H   0  0  0  0  0  0  0  0  0  0  0  0
    8.3793    5.3629   24.8333 H   0  0  0  0  0  0  0  0  0  0  0  0
    7.5145    4.6314   26.2274 H   0  0  0  0  0  0  0  0  0  0  0  0
    9.2208    4.1809   25.8921 H   0  0  0  0  0  0  0  0  0  0  0  0
    8.9453   -1.8868   22.7804 H   0  0  0  0  0  0  0  0  0  0  0  0
    7.2238   -0.5144   24.0457 H   0  0  0  0  0  0  0  0  0  0  0  0
    8.6162   -1.0343   25.0544 H   0  0  0  0  0  0  0  0  0  0  0  0
    7.0140   -1.3950   21.6684 H   0  0  0  0  0  0  0  0  0  0  0  0
    5.3303    0.4309   22.4670 H   0  0  0  0  0  0  0  0  0  0  0  0
    3.3755    1.8498   22.7371 H   0  0  0  0  0  0  0  0  0  0  0  0
    2.3739    2.9903   20.8035 H   0  0  0  0  0  0  0  0  0  0  0  0
    3.2540    2.6344   18.5590 H   0  0  0  0  0  0  0  0  0  0  0  0
    4.9026    1.4915   17.0579 H   0  0  0  0  0  0  0  0  0  0  0  0
    7.8934   -0.9059   18.5883 H   0  0  0  0  0  0  0  0  0  0  0  0
  1  2  1  0
  2  3  2  0
  2  4  1  0
  3 18  1  0
  3 34  1  0
  4  5  2  0
  4 35  1  0
  5  6  1  0
  5 36  1  0
  6  7  1  0
  6 18  2  0
  7  8  1  0
  7 37  1  1
  7 38  1  0
  8  9  1  0
  8 20  1  0
  9 10  2  0
  9 11  2  0
  9 12  1  6
 12 13  1  0
 12 17  1  0
 13 14  1  0
 13 39  1  1
 13 40  1  0
 14 15  1  0
 14 41  1  6
 14 42  1  0
 15 16  3  0
 17 43  1  6
 17 44  1  0
 17 45  1  0
 18 19  1  0
 19 20  1  0
 19 21  1  0
 19 46  1  6
 20 47  1  6
 20 48  1  0
 21 22  2  0
 21 23  1  0
 23 24  1  0
 23 49  1  0
 24 25  2  0
 24 33  1  0
 25 26  1  0
 25 30  1  0
 26 27  2  0
 26 50  1  0
 27 28  1  0
 27 51  1  0
 28 29  2  0
 28 52  1  0
 29 30  1  0
 29 53  1  0
 30 31  2  0
 31 32  1  0
 31 54  1  0
 32 33  2  0
 33 55  1  0
M  END
$$$$
