LIG(A-305)
     RDKit          3D

 36 38  0  0  1  0  0  0  0  0999 V2000
   13.8791   -1.7463   21.1631 Cl  0  0  0  0  0  0  0  0  0  0  0  0
   12.7601   -0.9212   22.2081 C   0  0  0  0  0  0  0  0  0  0  0  0
   13.2391    0.0008   23.1150 C   0  0  0  0  0  0  0  0  0  0  0  0
   12.3601    0.5908   24.0050 C   0  0  0  0  0  0  0  0  0  0  0  0
   11.4211   -1.2472   22.1421 C   0  0  0  0  0  0  0  0  0  0  0  0
   10.5151   -0.6302   23.0031 C   0  0  0  0  0  0  0  0  0  0  0  0
   11.0101    0.2768   23.9450 C   0  0  0  0  0  0  0  0  0  0  0  0
   10.2091    0.8949   24.8780 O   0  0  0  0  0  0  0  0  0  0  0  0
    8.8111    1.0059   24.5320 C   0  0  1  0  0  0  0  0  0  0  0  0
    8.2361   -0.3052   24.0601 C   0  0  1  0  0  0  0  0  0  0  0  0
    9.0201   -0.8192   22.8371 C   0  0  1  0  0  0  0  0  0  0  0  0
    8.5841   -0.0543   21.5870 C   0  0  0  0  0  0  0  0  0  0  0  0
    9.2181    0.9027   21.1580 O   0  0  0  0  0  0  0  0  0  0  0  0
    7.4491   -0.5083   21.0171 N   0  0  0  0  0  0  0  0  0  0  0  0
    6.7821    0.0857   19.9200 C   0  0  0  0  0  0  0  0  0  0  0  0
    5.6291    0.8567   20.1550 C   0  0  0  0  0  0  0  0  0  0  0  0
    5.1201    1.1267   21.5480 C   0  0  1  0  0  0  0  0  0  0  0  0
    7.2401   -0.0504   18.6080 C   0  0  0  0  0  0  0  0  0  0  0  0
    6.6300    0.5016   17.5550 N   0  0  0  0  0  0  0  0  0  0  0  0
    5.5240    1.2196   17.7900 C   0  0  0  0  0  0  0  0  0  0  0  0
    4.9980    1.4176   19.0500 C   0  0  0  0  0  0  0  0  0  0  0  0
   14.2877    0.2589   23.1301 H   0  0  0  0  0  0  0  0  0  0  0  0
   12.7225    1.2919   24.7423 H   0  0  0  0  0  0  0  0  0  0  0  0
   11.0761   -1.9781   21.4257 H   0  0  0  0  0  0  0  0  0  0  0  0
    8.2520    1.3393   25.4187 H   0  0  0  0  0  0  0  0  0  0  0  0
    8.7028    1.7498   23.7291 H   0  0  0  0  0  0  0  0  0  0  0  0
    8.3028   -1.0446   24.8717 H   0  0  0  0  0  0  0  0  0  0  0  0
    7.1818   -0.1605   23.7815 H   0  0  0  0  0  0  0  0  0  0  0  0
    8.8031   -1.8886   22.6980 H   0  0  0  0  0  0  0  0  0  0  0  0
    7.0439   -1.3368   21.4036 H   0  0  0  0  0  0  0  0  0  0  0  0
    5.8920    1.6575   22.1246 H   0  0  0  0  0  0  0  0  0  0  0  0
    4.2128    1.7464   21.4931 H   0  0  0  0  0  0  0  0  0  0  0  0
    4.8835    0.1733   22.0431 H   0  0  0  0  0  0  0  0  0  0  0  0
    8.1337   -0.6319   18.4354 H   0  0  0  0  0  0  0  0  0  0  0  0
    5.0169    1.6674   16.9482 H   0  0  0  0  0  0  0  0  0  0  0  0
    4.1009    2.0052   19.1775 H   0  0  0  0  0  0  0  0  0  0  0  0
  1  2  1  0
  2  3  2  0
  2  5  1  0
  3  4  1  0
  3 22  1  0
  4  7  2  0
  4 23  1  0
  5  6  2  0
  5 24  1  0
  6  7  1  0
  6 11  1  0
  7  8  1  0
  8  9  1  0
  9 10  1  0
  9 25  1  1
  9 26  1  0
 10 11  1  0
 10 27  1  1
 10 28  1  0
 11 12  1  0
 11 29  1  6
 12 13  2  0
 12 14  1  0
 14 15  1  0
 14 30  1  0
 15 16  2  0
 15 18  1  0
 16 17  1  0
 16 21  1  0
 17 31  1  1
 17 32  1  0
 17 33  1  0
 18 19  2  0
 18 34  1  0
 19 20  1  0
 20 21  2  0
 20 35  1  0
 21 36  1  0
M  END
$$$$
