LIG(A-306)
     RDKit          3D

 40 42  0  0  1  0  0  0  0  0999 V2000
  -14.1523    6.1261  -22.0226 O   0  0  0  0  0  0  0  0  0  0  0  0
  -14.1326    4.9168  -22.2468 C   0  0  0  0  0  0  0  0  0  0  0  0
  -13.4689    3.7030  -21.6107 C   0  0  1  0  0  0  0  0  0  0  0  0
  -14.7197    4.1726  -23.2026 N   0  0  0  0  0  0  0  0  0  0  0  0
  -14.3292    2.8915  -22.5864 C   0  0  1  0  0  0  0  0  0  0  0  0
  -13.4342    2.1240  -23.4152 O   0  0  0  0  0  0  0  0  0  0  0  0
  -13.0447    0.8864  -22.9439 C   0  0  0  0  0  0  0  0  0  0  0  0
  -13.9806   -0.0486  -22.5308 C   0  0  0  0  0  0  0  0  0  0  0  0
  -13.5231   -1.2713  -22.0826 C   0  0  0  0  0  0  0  0  0  0  0  0
  -14.6733   -2.4464  -21.5121 Cl  0  0  0  0  0  0  0  0  0  0  0  0
  -12.1748   -1.5749  -22.0363 C   0  0  0  0  0  0  0  0  0  0  0  0
  -11.6864    0.6019  -22.9216 C   0  0  0  0  0  0  0  0  0  0  0  0
  -11.2439   -0.6328  -22.4573 C   0  0  0  0  0  0  0  0  0  0  0  0
   -9.7656   -0.9388  -22.3863 C   0  0  1  0  0  0  0  0  0  0  0  0
   -9.0872   -0.1773  -21.2655 C   0  0  0  0  0  0  0  0  0  0  0  0
   -9.5350    0.8854  -20.8383 O   0  0  0  0  0  0  0  0  0  0  0  0
   -7.9551   -0.7468  -20.7939 N   0  0  0  0  0  0  0  0  0  0  0  0
   -7.1953   -0.1863  -19.7410 C   0  0  0  0  0  0  0  0  0  0  0  0
   -6.1355    0.6900  -20.0363 C   0  0  0  0  0  0  0  0  0  0  0  0
   -5.7235    0.9948  -21.4548 C   0  0  1  0  0  0  0  0  0  0  0  0
   -7.5152   -0.4220  -18.4033 C   0  0  0  0  0  0  0  0  0  0  0  0
   -6.8644    0.1428  -17.3772 N   0  0  0  0  0  0  0  0  0  0  0  0
   -5.8647    0.9813  -17.6727 C   0  0  0  0  0  0  0  0  0  0  0  0
   -5.4706    1.2757  -18.9642 C   0  0  0  0  0  0  0  0  0  0  0  0
  -12.3830    3.6265  -21.7684 H   0  0  0  0  0  0  0  0  0  0  0  0
  -13.6965    3.5489  -20.5457 H   0  0  0  0  0  0  0  0  0  0  0  0
  -15.2333    4.4041  -24.0288 H   0  0  0  0  0  0  0  0  0  0  0  0
  -15.1461    2.3294  -22.1103 H   0  0  0  0  0  0  0  0  0  0  0  0
  -15.0372    0.1729  -22.5589 H   0  0  0  0  0  0  0  0  0  0  0  0
  -11.8471   -2.5385  -21.6751 H   0  0  0  0  0  0  0  0  0  0  0  0
  -10.9740    1.3379  -23.2641 H   0  0  0  0  0  0  0  0  0  0  0  0
   -9.6329   -2.0173  -22.2153 H   0  0  0  0  0  0  0  0  0  0  0  0
   -9.2975   -0.6587  -23.3415 H   0  0  0  0  0  0  0  0  0  0  0  0
   -7.6414   -1.6014  -21.2076 H   0  0  0  0  0  0  0  0  0  0  0  0
   -6.5705    1.4430  -21.9950 H   0  0  0  0  0  0  0  0  0  0  0  0
   -4.8790    1.6996  -21.4478 H   0  0  0  0  0  0  0  0  0  0  0  0
   -5.4201    0.0640  -21.9565 H   0  0  0  0  0  0  0  0  0  0  0  0
   -8.3304   -1.0954  -18.1835 H   0  0  0  0  0  0  0  0  0  0  0  0
   -5.3368    1.4539  -16.8575 H   0  0  0  0  0  0  0  0  0  0  0  0
   -4.6510    1.9567  -19.1399 H   0  0  0  0  0  0  0  0  0  0  0  0
  1  2  2  0
  2  3  1  0
  2  4  1  0
  3  5  1  0
  3 25  1  1
  3 26  1  0
  4  5  1  0
  4 27  1  0
  5  6  1  0
  5 28  1  1
  6  7  1  0
  7  8  2  0
  7 12  1  0
  8  9  1  0
  8 29  1  0
  9 10  1  0
  9 11  2  0
 11 13  1  0
 11 30  1  0
 12 13  2  0
 12 31  1  0
 13 14  1  0
 14 15  1  0
 14 32  1  1
 14 33  1  0
 15 16  2  0
 15 17  1  0
 17 18  1  0
 17 34  1  0
 18 19  2  0
 18 21  1  0
 19 20  1  0
 19 24  1  0
 20 35  1  6
 20 36  1  0
 20 37  1  0
 21 22  2  0
 21 38  1  0
 22 23  1  0
 23 24  2  0
 23 39  1  0
 24 40  1  0
M  END
$$$$
