LIG(A-306)
     RDKit          3D

 34 36  0  0  0  0  0  0  0  0999 V2000
  -14.4155   -2.2106  -21.6425 Cl  0  0  0  0  0  0  0  0  0  0  0  0
  -13.0020   -1.5691  -22.4123 C   0  0  0  0  0  0  0  0  0  0  0  0
  -13.1247   -0.7015  -23.4770 C   0  0  0  0  0  0  0  0  0  0  0  0
  -14.3556   -0.2613  -23.8333 F   0  0  0  0  0  0  0  0  0  0  0  0
  -11.7466   -1.9619  -21.9925 C   0  0  0  0  0  0  0  0  0  0  0  0
  -10.6098   -1.4950  -22.6444 C   0  0  0  0  0  0  0  0  0  0  0  0
  -10.7681   -0.6545  -23.7408 C   0  0  0  0  0  0  0  0  0  0  0  0
  -12.0220   -0.2487  -24.1599 C   0  0  0  0  0  0  0  0  0  0  0  0
   -9.2351   -1.8343  -22.1164 C   0  0  1  0  0  0  0  0  0  0  0  0
   -8.7247   -0.7496  -21.1892 C   0  0  0  0  0  0  0  0  0  0  0  0
   -9.0396    0.4319  -21.3322 O   0  0  0  0  0  0  0  0  0  0  0  0
   -8.0104   -1.2023  -20.1454 N   0  0  0  0  0  0  0  0  0  0  0  0
   -6.9946   -0.5855  -19.3928 C   0  0  0  0  0  0  0  0  0  0  0  0
   -6.0847    0.3517  -19.9866 C   0  0  0  0  0  0  0  0  0  0  0  0
   -5.7962    0.4050  -21.3750 C   0  0  0  0  0  0  0  0  0  0  0  0
   -4.8301    1.2397  -21.8631 C   0  0  0  0  0  0  0  0  0  0  0  0
   -4.1075    2.0603  -21.0116 C   0  0  0  0  0  0  0  0  0  0  0  0
   -4.3491    2.0513  -19.6692 C   0  0  0  0  0  0  0  0  0  0  0  0
   -5.3367    1.1948  -19.1182 C   0  0  0  0  0  0  0  0  0  0  0  0
   -5.5495    1.0609  -17.7290 C   0  0  0  0  0  0  0  0  0  0  0  0
   -6.3751    0.1846  -17.1823 N   0  0  0  0  0  0  0  0  0  0  0  0
   -7.0558   -0.6175  -18.0041 C   0  0  0  0  0  0  0  0  0  0  0  0
  -11.6467   -2.6350  -21.1539 H   0  0  0  0  0  0  0  0  0  0  0  0
   -9.8946   -0.3120  -24.2757 H   0  0  0  0  0  0  0  0  0  0  0  0
  -12.1322    0.4114  -25.0075 H   0  0  0  0  0  0  0  0  0  0  0  0
   -9.2865   -2.7843  -21.5643 H   0  0  0  0  0  0  0  0  0  0  0  0
   -8.5407   -1.9394  -22.9631 H   0  0  0  0  0  0  0  0  0  0  0  0
   -8.2386   -2.1318  -19.8555 H   0  0  0  0  0  0  0  0  0  0  0  0
   -6.3488   -0.2241  -22.0570 H   0  0  0  0  0  0  0  0  0  0  0  0
   -4.6277    1.2600  -22.9238 H   0  0  0  0  0  0  0  0  0  0  0  0
   -3.3467    2.7123  -21.4144 H   0  0  0  0  0  0  0  0  0  0  0  0
   -3.7831    2.7025  -19.0196 H   0  0  0  0  0  0  0  0  0  0  0  0
   -5.0018    1.7175  -17.0692 H   0  0  0  0  0  0  0  0  0  0  0  0
   -7.7075   -1.3514  -17.5533 H   0  0  0  0  0  0  0  0  0  0  0  0
  1  2  1  0
  2  3  2  0
  2  5  1  0
  3  4  1  0
  3  8  1  0
  5  6  2  0
  5 23  1  0
  6  7  1  0
  6  9  1  0
  7  8  2  0
  7 24  1  0
  8 25  1  0
  9 10  1  0
  9 26  1  1
  9 27  1  0
 10 11  2  0
 10 12  1  0
 12 13  1  0
 12 28  1  0
 13 14  2  0
 13 22  1  0
 14 15  1  0
 14 19  1  0
 15 16  2  0
 15 29  1  0
 16 17  1  0
 16 30  1  0
 17 18  2  0
 17 31  1  0
 18 19  1  0
 18 32  1  0
 19 20  2  0
 20 21  1  0
 20 33  1  0
 21 22  2  0
 22 34  1  0
M  END
$$$$
