LIG(A-306)
     RDKit          3D

 45 48  0  0  1  0  0  0  0  0999 V2000
  -14.7814   -2.3111  -20.6916 Cl  0  0  0  0  0  0  0  0  0  0  0  0
  -13.7758   -1.4696  -21.8390 C   0  0  0  0  0  0  0  0  0  0  0  0
  -14.3405   -0.5045  -22.6440 C   0  0  0  0  0  0  0  0  0  0  0  0
  -13.5226    0.2663  -23.4504 C   0  0  0  0  0  0  0  0  0  0  0  0
  -12.4133   -1.6999  -21.8314 C   0  0  0  0  0  0  0  0  0  0  0  0
  -11.5724   -0.9192  -22.6228 C   0  0  0  0  0  0  0  0  0  0  0  0
  -12.1521    0.0480  -23.4498 C   0  0  0  0  0  0  0  0  0  0  0  0
  -11.4395    0.7725  -24.3762 O   0  0  0  0  0  0  0  0  0  0  0  0
   -9.9985    0.7348  -24.2840 C   0  0  1  0  0  0  0  0  0  0  0  0
   -9.4673   -0.6267  -23.9153 C   0  0  1  0  0  0  0  0  0  0  0  0
  -10.0667   -1.0769  -22.5781 C   0  0  1  0  0  0  0  0  0  0  0  0
   -9.4554   -0.2923  -21.4152 C   0  0  0  0  0  0  0  0  0  0  0  0
   -9.8994    0.7955  -21.0509 O   0  0  0  0  0  0  0  0  0  0  0  0
   -8.3661   -0.8718  -20.8585 N   0  0  0  0  0  0  0  0  0  0  0  0
   -7.5107   -0.3492  -19.8677 C   0  0  0  0  0  0  0  0  0  0  0  0
   -7.6834   -0.5304  -18.4951 C   0  0  0  0  0  0  0  0  0  0  0  0
   -6.9279    0.0335  -17.5441 N   0  0  0  0  0  0  0  0  0  0  0  0
   -5.9376    0.8205  -17.9346 C   0  0  0  0  0  0  0  0  0  0  0  0
   -6.4372    0.4967  -20.2901 C   0  0  0  0  0  0  0  0  0  0  0  0
   -5.6315    1.1044  -19.2870 C   0  0  0  0  0  0  0  0  0  0  0  0
   -4.5829    1.9733  -19.6803 C   0  0  0  0  0  0  0  0  0  0  0  0
   -4.3370    2.2212  -20.9998 C   0  0  0  0  0  0  0  0  0  0  0  0
   -6.1522    0.7757  -21.6485 C   0  0  0  0  0  0  0  0  0  0  0  0
   -5.1176    1.6124  -21.9739 C   0  0  0  0  0  0  0  0  0  0  0  0
   -4.7211    1.8412  -23.6816 S   0  0  1  0  0  0  0  0  0  0  0  0
   -3.3735    1.3928  -23.8928 O   0  0  0  0  0  0  0  0  0  0  0  0
   -5.7645    1.2444  -24.4684 O   0  0  0  0  0  0  0  0  0  0  0  0
   -4.7753    3.5802  -23.9106 C   0  0  1  0  0  0  0  0  0  0  0  0
  -15.4096   -0.3516  -22.6454 H   0  0  0  0  0  0  0  0  0  0  0  0
  -13.9489    1.0350  -24.0779 H   0  0  0  0  0  0  0  0  0  0  0  0
  -12.0006   -2.4835  -21.2133 H   0  0  0  0  0  0  0  0  0  0  0  0
   -9.5773    1.0233  -25.2584 H   0  0  0  0  0  0  0  0  0  0  0  0
   -9.6773    1.4556  -23.5178 H   0  0  0  0  0  0  0  0  0  0  0  0
   -9.7401   -1.3490  -24.6987 H   0  0  0  0  0  0  0  0  0  0  0  0
   -8.3720   -0.5788  -23.8262 H   0  0  0  0  0  0  0  0  0  0  0  0
   -9.8320   -2.1422  -22.4367 H   0  0  0  0  0  0  0  0  0  0  0  0
   -8.1396   -1.7867  -21.1926 H   0  0  0  0  0  0  0  0  0  0  0  0
   -8.4885   -1.1752  -18.1749 H   0  0  0  0  0  0  0  0  0  0  0  0
   -5.3232    1.2755  -17.1717 H   0  0  0  0  0  0  0  0  0  0  0  0
   -3.9707    2.4453  -18.9262 H   0  0  0  0  0  0  0  0  0  0  0  0
   -3.5376    2.8889  -21.2855 H   0  0  0  0  0  0  0  0  0  0  0  0
   -6.7507    0.3287  -22.4285 H   0  0  0  0  0  0  0  0  0  0  0  0
   -4.5385    3.8202  -24.9577 H   0  0  0  0  0  0  0  0  0  0  0  0
   -5.7823    3.9505  -23.6685 H   0  0  0  0  0  0  0  0  0  0  0  0
   -4.0392    4.0601  -23.2491 H   0  0  0  0  0  0  0  0  0  0  0  0
  1  2  1  0
  2  3  2  0
  2  5  1  0
  3  4  1  0
  3 29  1  0
  4  7  2  0
  4 30  1  0
  5  6  2  0
  5 31  1  0
  6  7  1  0
  6 11  1  0
  7  8  1  0
  8  9  1  0
  9 10  1  0
  9 32  1  6
  9 33  1  0
 10 11  1  0
 10 34  1  6
 10 35  1  0
 11 12  1  0
 11 36  1  1
 12 13  2  0
 12 14  1  0
 14 15  1  0
 14 37  1  0
 15 16  2  0
 15 19  1  0
 16 17  1  0
 16 38  1  0
 17 18  2  0
 18 20  1  0
 18 39  1  0
 19 20  2  0
 19 23  1  0
 20 21  1  0
 21 22  2  0
 21 40  1  0
 22 24  1  0
 22 41  1  0
 23 24  2  0
 23 42  1  0
 25 24  1  1
 25 26  2  0
 25 27  2  0
 25 28  1  0
 28 43  1  6
 28 44  1  0
 28 45  1  0
M  END
$$$$
