LIG(A-306)
     RDKit          3D

 41 44  0  0  1  0  0  0  0  0999 V2000
   -8.9463    0.4182  -21.3490 O   0  0  0  0  0  0  0  0  0  0  0  0
   -8.3146   -0.4705  -21.8987 C   0  0  0  0  0  0  0  0  0  0  0  0
   -8.7953   -1.0706  -23.2183 C   0  0  2  0  0  0  0  0  0  0  0  0
  -10.3101   -1.0849  -23.3030 C   0  0  0  0  0  0  0  0  0  0  0  0
  -11.0671   -1.7496  -22.3461 C   0  0  0  0  0  0  0  0  0  0  0  0
  -12.4473   -1.7894  -22.4268 C   0  0  0  0  0  0  0  0  0  0  0  0
  -10.9691   -0.4673  -24.3575 C   0  0  0  0  0  0  0  0  0  0  0  0
  -12.3491   -0.4932  -24.4525 C   0  0  0  0  0  0  0  0  0  0  0  0
  -13.0733   -1.1519  -23.4807 C   0  0  0  0  0  0  0  0  0  0  0  0
  -14.8111   -1.1547  -23.5658 Cl  0  0  0  0  0  0  0  0  0  0  0  0
   -7.1264   -0.9310  -21.4013 N   0  0  0  0  0  0  0  0  0  0  0  0
   -6.5297   -2.2381  -21.7256 C   0  0  1  0  0  0  0  0  0  0  0  0
   -6.7704   -2.5717  -23.1856 C   0  0  1  0  0  0  0  0  0  0  0  0
   -8.2555   -2.4856  -23.5074 C   0  0  2  0  0  0  0  0  0  0  0  0
   -6.5327   -0.3373  -20.2449 C   0  0  0  0  0  0  0  0  0  0  0  0
   -5.4673    0.5898  -20.4264 C   0  0  0  0  0  0  0  0  0  0  0  0
   -4.9391    0.9551  -21.6906 C   0  0  0  0  0  0  0  0  0  0  0  0
   -3.9244    1.8621  -21.7937 C   0  0  0  0  0  0  0  0  0  0  0  0
   -3.3836    2.4506  -20.6592 C   0  0  0  0  0  0  0  0  0  0  0  0
   -3.8556    2.1352  -19.4186 C   0  0  0  0  0  0  0  0  0  0  0  0
   -4.9033    1.1958  -19.2651 C   0  0  0  0  0  0  0  0  0  0  0  0
   -5.4302    0.8225  -18.0047 C   0  0  0  0  0  0  0  0  0  0  0  0
   -6.4101   -0.0579  -17.8410 N   0  0  0  0  0  0  0  0  0  0  0  0
   -6.9357   -0.6112  -18.9430 C   0  0  0  0  0  0  0  0  0  0  0  0
   -8.4297   -0.4168  -24.0239 H   0  0  0  0  0  0  0  0  0  0  0  0
  -10.5691   -2.2436  -21.5249 H   0  0  0  0  0  0  0  0  0  0  0  0
  -13.0261   -2.3103  -21.6785 H   0  0  0  0  0  0  0  0  0  0  0  0
  -10.3944    0.0423  -25.1169 H   0  0  0  0  0  0  0  0  0  0  0  0
  -12.8516   -0.0053  -25.2746 H   0  0  0  0  0  0  0  0  0  0  0  0
   -5.4471   -2.2016  -21.5342 H   0  0  0  0  0  0  0  0  0  0  0  0
   -6.9878   -3.0140  -21.0946 H   0  0  0  0  0  0  0  0  0  0  0  0
   -6.2201   -1.8583  -23.8167 H   0  0  0  0  0  0  0  0  0  0  0  0
   -6.4133   -3.5922  -23.3887 H   0  0  0  0  0  0  0  0  0  0  0  0
   -8.4086   -2.7200  -24.5711 H   0  0  0  0  0  0  0  0  0  0  0  0
   -8.8016   -3.2134  -22.8893 H   0  0  0  0  0  0  0  0  0  0  0  0
   -5.3460    0.5087  -22.5859 H   0  0  0  0  0  0  0  0  0  0  0  0
   -3.5386    2.1243  -22.7677 H   0  0  0  0  0  0  0  0  0  0  0  0
   -2.5805    3.1658  -20.7594 H   0  0  0  0  0  0  0  0  0  0  0  0
   -3.4263    2.6061  -18.5465 H   0  0  0  0  0  0  0  0  0  0  0  0
   -5.0090    1.2822  -17.1228 H   0  0  0  0  0  0  0  0  0  0  0  0
   -7.7347   -1.3254  -18.8088 H   0  0  0  0  0  0  0  0  0  0  0  0
  1  2  2  0
  2  3  1  0
  2 11  1  0
  3  4  1  0
  3 14  1  0
  3 25  1  6
  4  5  2  0
  4  7  1  0
  5  6  1  0
  5 26  1  0
  6  9  2  0
  6 27  1  0
  7  8  2  0
  7 28  1  0
  8  9  1  0
  8 29  1  0
  9 10  1  0
 11 12  1  0
 11 15  1  0
 12 13  1  0
 12 30  1  6
 12 31  1  0
 13 14  1  0
 13 32  1  6
 13 33  1  0
 14 34  1  6
 14 35  1  0
 15 16  2  0
 15 24  1  0
 16 17  1  0
 16 21  1  0
 17 18  2  0
 17 36  1  0
 18 19  1  0
 18 37  1  0
 19 20  2  0
 19 38  1  0
 20 21  1  0
 20 39  1  0
 21 22  2  0
 22 23  1  0
 22 40  1  0
 23 24  2  0
 24 41  1  0
M  END
$$$$
