LIG(A-306)
     RDKit          3D

 49 52  0  0  1  0  0  0  0  0999 V2000
   10.6817    2.9276   24.5058 O   0  0  0  0  0  0  0  0  0  0  0  0
   10.3495    1.7925   24.2053 C   0  0  0  0  0  0  0  0  0  0  0  0
    9.0608    1.3479   24.3603 N   0  0  0  0  0  0  0  0  0  0  0  0
    8.1248    2.1226   25.1478 C   0  0  1  0  0  0  0  0  0  0  0  0
    7.4959    3.3388   24.4869 C   0  0  0  0  0  0  0  0  0  0  0  0
    6.7957    4.1047   25.1433 O   0  0  0  0  0  0  0  0  0  0  0  0
    7.7196    3.5120   23.1891 N   0  0  0  0  0  0  0  0  0  0  0  0
    7.0527    4.5444   22.4178 C   0  0  1  0  0  0  0  0  0  0  0  0
   11.2776    0.8832   23.5215 C   0  0  0  0  0  0  0  0  0  0  0  0
   12.6233    1.2391   23.4106 C   0  0  0  0  0  0  0  0  0  0  0  0
   13.5075    0.4311   22.7215 C   0  0  0  0  0  0  0  0  0  0  0  0
   13.0462   -0.7402   22.1604 C   0  0  0  0  0  0  0  0  0  0  0  0
   14.1690   -1.7853   21.3355 Cl  0  0  0  0  0  0  0  0  0  0  0  0
   11.7154   -1.1095   22.2368 C   0  0  0  0  0  0  0  0  0  0  0  0
   10.8086   -0.2811   22.9001 C   0  0  0  0  0  0  0  0  0  0  0  0
    9.3256   -0.5949   22.8773 C   0  0  1  0  0  0  0  0  0  0  0  0
    8.6686   -0.0485   24.1434 C   0  0  2  0  0  0  0  0  0  0  0  0
    8.7000    0.1472   21.6933 C   0  0  0  0  0  0  0  0  0  0  0  0
    9.0856    1.2621   21.3406 O   0  0  0  0  0  0  0  0  0  0  0  0
    7.6756   -0.4977   21.0984 N   0  0  0  0  0  0  0  0  0  0  0  0
    6.9108   -0.0425   20.0058 C   0  0  0  0  0  0  0  0  0  0  0  0
    5.7653    0.7737   20.2706 C   0  0  0  0  0  0  0  0  0  0  0  0
    5.3072    1.0794   21.5746 C   0  0  0  0  0  0  0  0  0  0  0  0
    4.2187    1.8773   21.7185 C   0  0  0  0  0  0  0  0  0  0  0  0
    3.8033    2.1783   22.9771 F   0  0  0  0  0  0  0  0  0  0  0  0
    3.5235    2.4142   20.6615 C   0  0  0  0  0  0  0  0  0  0  0  0
    3.9417    2.1500   19.3919 C   0  0  0  0  0  0  0  0  0  0  0  0
    5.0673    1.3219   19.1572 C   0  0  0  0  0  0  0  0  0  0  0  0
    5.5473    1.0173   17.8614 C   0  0  0  0  0  0  0  0  0  0  0  0
    6.6092    0.2625   17.6170 N   0  0  0  0  0  0  0  0  0  0  0  0
    7.2614   -0.2480   18.6718 C   0  0  0  0  0  0  0  0  0  0  0  0
    7.3077    1.4493   25.4462 H   0  0  0  0  0  0  0  0  0  0  0  0
    8.6576    2.4724   26.0443 H   0  0  0  0  0  0  0  0  0  0  0  0
    8.3706    2.9096   22.7273 H   0  0  0  0  0  0  0  0  0  0  0  0
    7.3922    4.4989   21.3724 H   0  0  0  0  0  0  0  0  0  0  0  0
    5.9649    4.3864   22.4571 H   0  0  0  0  0  0  0  0  0  0  0  0
    7.2953    5.5311   22.8392 H   0  0  0  0  0  0  0  0  0  0  0  0
   12.9755    2.1524   23.8668 H   0  0  0  0  0  0  0  0  0  0  0  0
   14.5454    0.7135   22.6239 H   0  0  0  0  0  0  0  0  0  0  0  0
   11.3804   -2.0322   21.7865 H   0  0  0  0  0  0  0  0  0  0  0  0
    9.1563   -1.6781   22.7886 H   0  0  0  0  0  0  0  0  0  0  0  0
    7.5752   -0.1058   24.0382 H   0  0  0  0  0  0  0  0  0  0  0  0
    8.9861   -0.6525   25.0062 H   0  0  0  0  0  0  0  0  0  0  0  0
    7.4334   -1.3931   21.4720 H   0  0  0  0  0  0  0  0  0  0  0  0
    5.8159    0.6838   22.4414 H   0  0  0  0  0  0  0  0  0  0  0  0
    2.6580    3.0366   20.8347 H   0  0  0  0  0  0  0  0  0  0  0  0
    3.4091    2.5767   18.5548 H   0  0  0  0  0  0  0  0  0  0  0  0
    5.0136    1.4265   17.0163 H   0  0  0  0  0  0  0  0  0  0  0  0
    8.1245   -0.8658   18.4728 H   0  0  0  0  0  0  0  0  0  0  0  0
  1  2  2  0
  2  3  1  0
  2  9  1  0
  3  4  1  0
  3 17  1  0
  4  5  1  0
  4 32  1  1
  4 33  1  0
  5  6  2  0
  5  7  1  0
  7  8  1  0
  7 34  1  0
  8 35  1  6
  8 36  1  0
  8 37  1  0
  9 10  2  0
  9 15  1  0
 10 11  1  0
 10 38  1  0
 11 12  2  0
 11 39  1  0
 12 13  1  0
 12 14  1  0
 14 15  2  0
 14 40  1  0
 15 16  1  0
 16 17  1  0
 16 18  1  0
 16 41  1  6
 17 42  1  6
 17 43  1  0
 18 19  2  0
 18 20  1  0
 20 21  1  0
 20 44  1  0
 21 22  2  0
 21 31  1  0
 22 23  1  0
 22 28  1  0
 23 24  2  0
 23 45  1  0
 24 25  1  0
 24 26  1  0
 26 27  2  0
 26 46  1  0
 27 28  1  0
 27 47  1  0
 28 29  2  0
 29 30  1  0
 29 48  1  0
 30 31  2  0
 31 49  1  0
M  END
$$$$
