LIG(A-305)
     RDKit          3D

 28 29  0  0  0  0  0  0  0  0999 V2000
   21.3453    7.5119   22.5379 N   0  0  0  0  0  0  0  0  0  0  0  0
   21.8693    6.4369   23.2349 C   0  0  0  0  0  0  0  0  0  0  0  0
   22.3363    2.0729   25.8809 O   0  0  0  0  0  0  0  0  0  0  0  0
   21.5173    6.2459   24.6049 C   0  0  0  0  0  0  0  0  0  0  0  0
   25.9433    5.6118   28.9539 C   0  0  0  0  0  0  0  0  0  0  0  0
   22.0383    5.1689   25.3159 C   0  0  0  0  0  0  0  0  0  0  0  0
   22.9083    4.2279   24.7329 C   0  0  0  0  0  0  0  0  0  0  0  0
   23.2493    4.4519   23.3639 C   0  0  0  0  0  0  0  0  0  0  0  0
   22.7573    5.5159   22.6189 C   0  0  0  0  0  0  0  0  0  0  0  0
   24.9723    4.3528   27.2529 C   0  0  0  0  0  0  0  0  0  0  0  0
   25.7393    4.9548   26.2519 C   0  0  0  0  0  0  0  0  0  0  0  0
   26.6303    5.9188   26.6739 C   0  0  0  0  0  0  0  0  0  0  0  0
   26.7483    6.2618   28.0189 C   0  0  0  0  0  0  0  0  0  0  0  0
   23.9823    3.4358   27.0339 N   0  0  0  0  0  0  0  0  0  0  0  0
   25.0653    4.6608   28.6119 N   0  0  0  0  0  0  0  0  0  0  0  0
   24.5323    2.3508   24.8039 O   0  0  0  0  0  0  0  0  0  0  0  0
   23.4553    2.8879   25.5339 S   0  0  1  0  0  0  0  0  0  0  0  0
   20.7489    8.0418   23.1408 H   0  0  0  0  0  0  0  0  0  0  0  0
   20.8174    7.1780   21.7570 H   0  0  0  0  0  0  0  0  0  0  0  0
   20.8456    6.9383   25.0905 H   0  0  0  0  0  0  0  0  0  0  0  0
   26.0317    5.8864   29.9947 H   0  0  0  0  0  0  0  0  0  0  0  0
   21.7649    5.0505   26.3540 H   0  0  0  0  0  0  0  0  0  0  0  0
   23.9240    3.7586   22.8837 H   0  0  0  0  0  0  0  0  0  0  0  0
   23.0459    5.6409   21.5858 H   0  0  0  0  0  0  0  0  0  0  0  0
   25.6403    4.6818   25.2117 H   0  0  0  0  0  0  0  0  0  0  0  0
   27.2507    6.4193   25.9451 H   0  0  0  0  0  0  0  0  0  0  0  0
   27.4518    7.0189   28.3324 H   0  0  0  0  0  0  0  0  0  0  0  0
   23.9279    2.7382   27.7483 H   0  0  0  0  0  0  0  0  0  0  0  0
  1  2  1  0
  1 18  1  0
  1 19  1  0
  2  4  2  0
  2  9  1  0
  3 17  2  0
  4  6  1  0
  4 20  1  0
  5 13  1  0
  5 15  2  0
  5 21  1  0
  6  7  2  0
  6 22  1  0
  7  8  1  0
  7 17  1  0
  8  9  2  0
  8 23  1  0
  9 24  1  0
 10 11  2  0
 10 14  1  0
 10 15  1  0
 11 12  1  0
 11 25  1  0
 12 13  2  0
 12 26  1  0
 13 27  1  0
 17 14  1  1
 14 28  1  0
 16 17  2  0
M  END
$$$$
