LIG(A-305)
     RDKit          3D

 40 41  0  0  1  0  0  0  0  0999 V2000
    5.5791   -5.1816   20.2101 N   0  0  0  0  0  0  0  0  0  0  0  0
    5.8460   -5.0865   21.3202 C   0  0  0  0  0  0  0  0  0  0  0  0
    6.2489   -4.9413   22.6742 C   0  0  2  0  0  0  0  0  0  0  0  0
    7.5038   -4.4880   22.8862 C   0  0  0  0  0  0  0  0  0  0  0  0
    8.2818   -3.8270   21.9522 N   0  0  0  0  0  0  0  0  0  0  0  0
    7.8557   -3.0152   20.9441 C   0  0  0  0  0  0  0  0  0  0  0  0
    8.9407   -2.5031   20.0241 C   0  0  1  0  0  0  0  0  0  0  0  0
    6.7096   -2.5744   20.8870 O   0  0  0  0  0  0  0  0  0  0  0  0
    8.0758   -4.6308   24.1122 N   0  0  0  0  0  0  0  0  0  0  0  0
    7.4558   -5.2118   25.1833 C   0  0  0  0  0  0  0  0  0  0  0  0
    8.3457   -5.2645   26.6933 S   0  0  0  0  0  0  0  0  0  0  0  0
   10.0458   -5.4363   26.1414 C   0  0  1  0  0  0  0  0  0  0  0  0
    5.3720   -5.4863   23.7962 C   0  0  2  0  0  0  0  0  0  0  0  0
    6.1909   -5.6921   25.0692 C   0  0  1  0  0  0  0  0  0  0  0  0
    5.6300   -6.4641   26.1183 C   0  0  0  0  0  0  0  0  0  0  0  0
    5.1470   -7.1041   26.9383 N   0  0  0  0  0  0  0  0  0  0  0  0
    4.6752   -6.7345   23.1912 C   0  0  1  0  0  0  0  0  0  0  0  0
    3.2652   -7.0027   23.7012 C   0  0  1  0  0  0  0  0  0  0  0  0
    2.3940   -5.7699   23.5800 C   0  0  1  0  0  0  0  0  0  0  0  0
    2.9928   -4.6247   24.3649 C   0  0  1  0  0  0  0  0  0  0  0  0
    4.3897   -4.2885   23.8560 C   0  0  1  0  0  0  0  0  0  0  0  0
    5.8114   -3.9351   22.7529 H   0  0  0  0  0  0  0  0  0  0  0  0
    9.2701   -3.9603   22.0254 H   0  0  0  0  0  0  0  0  0  0  0  0
    8.5251   -1.7301   19.3608 H   0  0  0  0  0  0  0  0  0  0  0  0
    9.7561   -2.0720   20.6234 H   0  0  0  0  0  0  0  0  0  0  0  0
    9.3306   -3.3346   19.4187 H   0  0  0  0  0  0  0  0  0  0  0  0
   10.7127   -5.4811   27.0151 H   0  0  0  0  0  0  0  0  0  0  0  0
   10.1488   -6.3605   25.5539 H   0  0  0  0  0  0  0  0  0  0  0  0
   10.3175   -4.5725   25.5169 H   0  0  0  0  0  0  0  0  0  0  0  0
    5.7801   -4.7687   25.5037 H   0  0  0  0  0  0  0  0  0  0  0  0
    4.6225   -6.5995   22.1008 H   0  0  0  0  0  0  0  0  0  0  0  0
    5.2935   -7.6145   23.4223 H   0  0  0  0  0  0  0  0  0  0  0  0
    2.8191   -7.8165   23.1107 H   0  0  0  0  0  0  0  0  0  0  0  0
    3.3172   -7.3026   24.7582 H   0  0  0  0  0  0  0  0  0  0  0  0
    2.3169   -5.4827   22.5210 H   0  0  0  0  0  0  0  0  0  0  0  0
    1.3914   -5.9941   23.9730 H   0  0  0  0  0  0  0  0  0  0  0  0
    2.3482   -3.7396   24.2592 H   0  0  0  0  0  0  0  0  0  0  0  0
    3.0546   -4.9086   25.4259 H   0  0  0  0  0  0  0  0  0  0  0  0
    4.8211   -3.5266   24.5219 H   0  0  0  0  0  0  0  0  0  0  0  0
    4.2928   -3.8759   22.8409 H   0  0  0  0  0  0  0  0  0  0  0  0
  1  2  3  0
  2  3  1  0
  3  4  1  0
 13  3  1  6
  3 22  1  1
  4  5  2  0
  4  9  1  0
  5  6  1  0
  5 23  1  0
  6  7  1  0
  6  8  2  0
  7 24  1  6
  7 25  1  0
  7 26  1  0
  9 10  2  0
 10 11  1  0
 10 14  1  0
 11 12  1  0
 12 27  1  1
 12 28  1  0
 12 29  1  0
 13 14  1  0
 13 17  1  0
 13 21  1  0
 14 15  1  0
 14 30  1  1
 15 16  3  0
 17 18  1  0
 17 31  1  6
 17 32  1  0
 18 19  1  0
 18 33  1  6
 18 34  1  0
 19 20  1  0
 19 35  1  6
 19 36  1  0
 20 21  1  0
 20 37  1  1
 20 38  1  0
 21 39  1  1
 21 40  1  0
M  CHG  1   5   1
M  END
$$$$
