LIG(A-306)
     RDKit          3D

 46 48  0  0  1  0  0  0  0  0999 V2000
    9.1970    1.2633   21.4578 O   0  0  0  0  0  0  0  0  0  0  0  0
    8.9471    0.3254   22.2034 C   0  0  0  0  0  0  0  0  0  0  0  0
    7.7723   -0.6078   21.9119 C   0  0  1  0  0  0  0  0  0  0  0  0
    7.2129   -0.3536   20.6035 N   0  0  0  0  0  0  0  0  0  0  0  0
    6.1132    0.3761   20.2587 C   0  0  0  0  0  0  0  0  0  0  0  0
    5.1346    1.0334   20.9873 C   0  0  0  0  0  0  0  0  0  0  0  0
    4.2099    1.7938   20.2844 C   0  0  0  0  0  0  0  0  0  0  0  0
    4.2629    1.8800   18.8969 C   0  0  0  0  0  0  0  0  0  0  0  0
    5.2286    1.1927   18.1735 C   0  0  0  0  0  0  0  0  0  0  0  0
    6.1653    0.4343   18.8704 C   0  0  0  0  0  0  0  0  0  0  0  0
    7.2600   -0.2833   18.4391 N   0  0  0  0  0  0  0  0  0  0  0  0
    7.8770   -0.7506   19.4886 N   0  0  0  0  0  0  0  0  0  0  0  0
    9.6313    0.1488   23.3664 N   0  0  0  0  0  0  0  0  0  0  0  0
    9.9843    1.3972   24.0873 C   0  0  1  0  0  0  0  0  0  0  0  0
    8.8178    1.9822   24.8412 C   0  0  1  0  0  0  0  0  0  0  0  0
   10.0892   -1.1101   23.9818 C   0  0  1  0  0  0  0  0  0  0  0  0
    9.3502   -2.3454   23.4638 C   0  0  1  0  0  0  0  0  0  0  0  0
    8.4926   -3.0132   24.5280 C   0  0  1  0  0  0  0  0  0  0  0  0
   11.5936   -1.2729   23.9238 C   0  0  0  0  0  0  0  0  0  0  0  0
   12.3327   -1.3893   25.0925 C   0  0  0  0  0  0  0  0  0  0  0  0
   13.6973   -1.6223   25.0449 C   0  0  0  0  0  0  0  0  0  0  0  0
   14.3387   -1.7389   23.8325 C   0  0  0  0  0  0  0  0  0  0  0  0
   13.6196   -1.6114   22.6628 C   0  0  0  0  0  0  0  0  0  0  0  0
   12.2550   -1.3773   22.7064 C   0  0  0  0  0  0  0  0  0  0  0  0
    8.1227   -1.6496   21.9557 H   0  0  0  0  0  0  0  0  0  0  0  0
    6.9926   -0.4509   22.6718 H   0  0  0  0  0  0  0  0  0  0  0  0
    5.0928    0.9569   22.0638 H   0  0  0  0  0  0  0  0  0  0  0  0
    3.4389    2.3256   20.8220 H   0  0  0  0  0  0  0  0  0  0  0  0
    3.5418    2.4910   18.3743 H   0  0  0  0  0  0  0  0  0  0  0  0
    5.2524    1.2452   17.0950 H   0  0  0  0  0  0  0  0  0  0  0  0
   10.7899    1.1750   24.8025 H   0  0  0  0  0  0  0  0  0  0  0  0
   10.3379    2.1384   23.3553 H   0  0  0  0  0  0  0  0  0  0  0  0
    9.1361    2.9018   25.3540 H   0  0  0  0  0  0  0  0  0  0  0  0
    8.0067    2.2175   24.1364 H   0  0  0  0  0  0  0  0  0  0  0  0
    8.4588    1.2542   25.5835 H   0  0  0  0  0  0  0  0  0  0  0  0
    9.8366   -1.0399   25.0501 H   0  0  0  0  0  0  0  0  0  0  0  0
    8.7007   -2.0415   22.6296 H   0  0  0  0  0  0  0  0  0  0  0  0
   10.0925   -3.0731   23.1041 H   0  0  0  0  0  0  0  0  0  0  0  0
    7.9892   -3.8908   24.0964 H   0  0  0  0  0  0  0  0  0  0  0  0
    9.1301   -3.3315   25.3660 H   0  0  0  0  0  0  0  0  0  0  0  0
    7.7383   -2.2999   24.8915 H   0  0  0  0  0  0  0  0  0  0  0  0
   11.8391   -1.2973   26.0487 H   0  0  0  0  0  0  0  0  0  0  0  0
   14.2600   -1.7130   25.9622 H   0  0  0  0  0  0  0  0  0  0  0  0
   15.4012   -1.9294   23.7975 H   0  0  0  0  0  0  0  0  0  0  0  0
   14.1216   -1.6942   21.7101 H   0  0  0  0  0  0  0  0  0  0  0  0
   11.7000   -1.2751   21.7856 H   0  0  0  0  0  0  0  0  0  0  0  0
  1  2  2  0
  2  3  1  0
  2 13  1  0
  3  4  1  0
  3 25  1  6
  3 26  1  0
  4  5  1  0
  4 12  1  0
  5  6  2  0
  5 10  1  0
  6  7  1  0
  6 27  1  0
  7  8  2  0
  7 28  1  0
  8  9  1  0
  8 29  1  0
  9 10  2  0
  9 30  1  0
 10 11  1  0
 11 12  2  0
 13 14  1  0
 13 16  1  0
 14 15  1  0
 14 31  1  1
 14 32  1  0
 15 33  1  1
 15 34  1  0
 15 35  1  0
 16 17  1  0
 16 19  1  0
 16 36  1  1
 17 18  1  0
 17 37  1  6
 17 38  1  0
 18 39  1  6
 18 40  1  0
 18 41  1  0
 19 20  2  0
 19 24  1  0
 20 21  1  0
 20 42  1  0
 21 22  2  0
 21 43  1  0
 22 23  1  0
 22 44  1  0
 23 24  2  0
 23 45  1  0
 24 46  1  0
M  END
$$$$
