LIG(A-305)
     RDKit          3D

 43 46  0  0  1  0  0  0  0  0999 V2000
    9.5222    1.2380   21.2941 O   0  0  0  0  0  0  0  0  0  0  0  0
    8.9333    0.2410   21.7072 C   0  0  0  0  0  0  0  0  0  0  0  0
    9.3544   -0.4919   22.9822 C   0  0  2  0  0  0  0  0  0  0  0  0
    8.6724    0.1811   24.1822 C   0  0  1  0  0  0  0  0  0  0  0  0
    9.4474    1.4032   24.6011 C   0  0  1  0  0  0  0  0  0  0  0  0
   10.7944    1.0534   24.9790 O   0  0  0  0  0  0  0  0  0  0  0  0
   10.8684   -0.4248   23.0521 C   0  0  0  0  0  0  0  0  0  0  0  0
   11.4914    0.3783   24.0090 C   0  0  0  0  0  0  0  0  0  0  0  0
   12.8664    0.5464   24.0279 C   0  0  0  0  0  0  0  0  0  0  0  0
   13.6434   -0.0906   23.0779 C   0  0  0  0  0  0  0  0  0  0  0  0
   11.6734   -1.0968   22.1301 C   0  0  0  0  0  0  0  0  0  0  0  0
   13.0404   -0.9147   22.1570 C   0  0  0  0  0  0  0  0  0  0  0  0
   14.0274   -1.7657   21.0010 Cl  0  0  0  0  0  0  0  0  0  0  0  0
    7.9033   -0.3081   21.0593 N   0  0  0  0  0  0  0  0  0  0  0  0
    6.8902    0.1037   20.1864 C   0  0  0  0  0  0  0  0  0  0  0  0
    5.7571    0.9006   20.4114 C   0  0  0  0  0  0  0  0  0  0  0  0
    5.3082    1.1977   21.8204 C   0  0  1  0  0  0  0  0  0  0  0  0
    4.2801    2.2406   21.8944 N   0  0  1  0  0  0  0  0  0  0  0  0
    3.2311    2.0495   20.8775 C   0  0  1  0  0  0  0  0  0  0  0  0
    3.7869    2.1994   19.4805 C   0  0  1  0  0  0  0  0  0  0  0  0
    5.0460    1.3835   19.3024 C   0  0  0  0  0  0  0  0  0  0  0  0
    5.5339    1.0915   18.0444 C   0  0  0  0  0  0  0  0  0  0  0  0
    6.6330    0.3705   17.8114 N   0  0  0  0  0  0  0  0  0  0  0  0
    7.2781   -0.1223   18.8674 C   0  0  0  0  0  0  0  0  0  0  0  0
    9.0341   -1.5425   22.9230 H   0  0  0  0  0  0  0  0  0  0  0  0
    7.6510    0.4770   23.9011 H   0  0  0  0  0  0  0  0  0  0  0  0
    8.6308   -0.5284   25.0218 H   0  0  0  0  0  0  0  0  0  0  0  0
    9.4817    2.1133   23.7616 H   0  0  0  0  0  0  0  0  0  0  0  0
    8.9432    1.8731   25.4584 H   0  0  0  0  0  0  0  0  0  0  0  0
   13.3280    1.1703   24.7790 H   0  0  0  0  0  0  0  0  0  0  0  0
   14.7130    0.0576   23.0594 H   0  0  0  0  0  0  0  0  0  0  0  0
   11.2279   -1.7558   21.3996 H   0  0  0  0  0  0  0  0  0  0  0  0
    7.8372   -1.2872   21.2516 H   0  0  0  0  0  0  0  0  0  0  0  0
    4.9012    0.2747   22.2590 H   0  0  0  0  0  0  0  0  0  0  0  0
    6.1814    1.5264   22.4029 H   0  0  0  0  0  0  0  0  0  0  0  0
    3.8597    2.2167   22.8015 H   0  0  0  0  0  0  0  0  0  0  0  0
    4.7117    3.1312   21.7505 H   0  0  0  0  0  0  0  0  0  0  0  0
    2.8049    1.0414   20.9873 H   0  0  0  0  0  0  0  0  0  0  0  0
    2.4417    2.7999   21.0315 H   0  0  0  0  0  0  0  0  0  0  0  0
    3.0329    1.8582   18.7558 H   0  0  0  0  0  0  0  0  0  0  0  0
    4.0176    3.2594   19.2980 H   0  0  0  0  0  0  0  0  0  0  0  0
    4.9902    1.4716   17.1921 H   0  0  0  0  0  0  0  0  0  0  0  0
    8.1519   -0.7321   18.6910 H   0  0  0  0  0  0  0  0  0  0  0  0
  1  2  2  0
  2  3  1  0
  2 14  1  0
  3  4  1  0
  3  7  1  0
  3 25  1  6
  4  5  1  0
  4 26  1  6
  4 27  1  0
  5  6  1  0
  5 28  1  6
  5 29  1  0
  6  8  1  0
  7  8  2  0
  7 11  1  0
  8  9  1  0
  9 10  2  0
  9 30  1  0
 10 12  1  0
 10 31  1  0
 11 12  2  0
 11 32  1  0
 12 13  1  0
 14 15  1  0
 14 33  1  0
 15 16  2  0
 15 24  1  0
 16 17  1  0
 16 21  1  0
 17 18  1  0
 17 34  1  1
 17 35  1  0
 18 19  1  0
 18 36  1  1
 18 37  1  0
 19 20  1  0
 19 38  1  6
 19 39  1  0
 20 21  1  0
 20 40  1  6
 20 41  1  0
 21 22  2  0
 22 23  1  0
 22 42  1  0
 23 24  2  0
 24 43  1  0
M  CHG  1  18   1
M  END
$$$$
