LIG(A-306)
     RDKit          3D

 45 48  0  0  1  0  0  0  0  0999 V2000
   -9.8794    0.6110  -20.9941 O   0  0  0  0  0  0  0  0  0  0  0  0
   -9.3834   -0.4250  -21.4179 C   0  0  0  0  0  0  0  0  0  0  0  0
  -10.0364   -1.1983  -22.5871 C   0  0  1  0  0  0  0  0  0  0  0  0
  -11.5409   -0.9498  -22.5967 C   0  0  0  0  0  0  0  0  0  0  0  0
  -12.3448   -1.6161  -21.6781 C   0  0  0  0  0  0  0  0  0  0  0  0
  -13.7052   -1.3864  -21.6686 C   0  0  0  0  0  0  0  0  0  0  0  0
  -14.6924   -2.2605  -20.5324 Cl  0  0  0  0  0  0  0  0  0  0  0  0
  -14.3036   -0.5101  -22.5525 C   0  0  0  0  0  0  0  0  0  0  0  0
  -13.5264    0.1315  -23.4990 C   0  0  0  0  0  0  0  0  0  0  0  0
  -12.1586   -0.0852  -23.5159 C   0  0  0  0  0  0  0  0  0  0  0  0
  -11.4594    0.6638  -24.4309 O   0  0  0  0  0  0  0  0  0  0  0  0
  -10.0112    0.6604  -24.3127 C   0  0  1  0  0  0  0  0  0  0  0  0
   -9.4391   -0.6835  -23.9174 C   0  0  2  0  0  0  0  0  0  0  0  0
   -9.7816   -2.7210  -22.4649 C   0  0  1  0  0  0  0  0  0  0  0  0
   -8.4162   -3.1444  -22.7746 N   0  0  1  0  0  0  0  0  0  0  0  0
   -8.3526   -0.9794  -20.7699 N   0  0  0  0  0  0  0  0  0  0  0  0
   -7.4055   -0.5220  -19.8537 C   0  0  0  0  0  0  0  0  0  0  0  0
   -6.3719    0.3983  -20.2176 C   0  0  0  0  0  0  0  0  0  0  0  0
   -5.9471    0.6219  -21.5543 C   0  0  0  0  0  0  0  0  0  0  0  0
   -4.8813    1.4354  -21.8289 C   0  0  0  0  0  0  0  0  0  0  0  0
   -4.1828    2.0564  -20.8046 C   0  0  0  0  0  0  0  0  0  0  0  0
   -4.5599    1.8857  -19.5010 C   0  0  0  0  0  0  0  0  0  0  0  0
   -5.6634    1.0602  -19.1724 C   0  0  0  0  0  0  0  0  0  0  0  0
   -6.0703    0.8112  -17.8403 C   0  0  0  0  0  0  0  0  0  0  0  0
   -7.0517   -0.0120  -17.5039 N   0  0  0  0  0  0  0  0  0  0  0  0
   -7.6692   -0.6704  -18.4936 C   0  0  0  0  0  0  0  0  0  0  0  0
  -11.9065   -2.3098  -20.9758 H   0  0  0  0  0  0  0  0  0  0  0  0
  -15.3671   -0.3281  -22.5049 H   0  0  0  0  0  0  0  0  0  0  0  0
  -13.9819    0.7957  -24.2187 H   0  0  0  0  0  0  0  0  0  0  0  0
   -9.5823    0.9490  -25.2836 H   0  0  0  0  0  0  0  0  0  0  0  0
   -9.7227    1.3990  -23.5503 H   0  0  0  0  0  0  0  0  0  0  0  0
   -9.6610   -1.4115  -24.7117 H   0  0  0  0  0  0  0  0  0  0  0  0
   -8.3494   -0.5861  -23.8034 H   0  0  0  0  0  0  0  0  0  0  0  0
  -10.0067   -3.0231  -21.4315 H   0  0  0  0  0  0  0  0  0  0  0  0
  -10.4643   -3.2381  -23.1552 H   0  0  0  0  0  0  0  0  0  0  0  0
   -8.4315   -3.7863  -23.5413 H   0  0  0  0  0  0  0  0  0  0  0  0
   -7.8671   -2.3454  -23.0199 H   0  0  0  0  0  0  0  0  0  0  0  0
   -8.0161   -3.5908  -21.9742 H   0  0  0  0  0  0  0  0  0  0  0  0
   -8.2333   -1.9465  -20.9947 H   0  0  0  0  0  0  0  0  0  0  0  0
   -6.4733    0.1426  -22.3666 H   0  0  0  0  0  0  0  0  0  0  0  0
   -4.5812    1.5953  -22.8540 H   0  0  0  0  0  0  0  0  0  0  0  0
   -3.3331    2.6808  -21.0384 H   0  0  0  0  0  0  0  0  0  0  0  0
   -4.0117    2.3844  -18.7155 H   0  0  0  0  0  0  0  0  0  0  0  0
   -5.5474    1.3251  -17.0474 H   0  0  0  0  0  0  0  0  0  0  0  0
   -8.4369   -1.3765  -18.2135 H   0  0  0  0  0  0  0  0  0  0  0  0
  1  2  2  0
  3  2  1  1
  2 16  1  0
  3  4  1  0
  3 13  1  0
  3 14  1  0
  4  5  2  0
  4 10  1  0
  5  6  1  0
  5 27  1  0
  6  7  1  0
  6  8  2  0
  8  9  1  0
  8 28  1  0
  9 10  2  0
  9 29  1  0
 10 11  1  0
 11 12  1  0
 12 13  1  0
 12 30  1  6
 12 31  1  0
 13 32  1  6
 13 33  1  0
 14 15  1  0
 14 34  1  1
 14 35  1  0
 15 36  1  6
 15 37  1  0
 15 38  1  0
 16 17  1  0
 16 39  1  0
 17 18  2  0
 17 26  1  0
 18 19  1  0
 18 23  1  0
 19 20  2  0
 19 40  1  0
 20 21  1  0
 20 41  1  0
 21 22  2  0
 21 42  1  0
 22 23  1  0
 22 43  1  0
 23 24  2  0
 24 25  1  0
 24 44  1  0
 25 26  2  0
 26 45  1  0
M  CHG  1  15   1
M  END
$$$$
