LIG(A-305)
     RDKit          3D

 31 32  0  0  0  0  0  0  0  0999 V2000
    6.4589   -5.0734   21.6605 N   0  0  0  0  0  0  0  0  0  0  0  0
    7.7179   -3.4864   20.2314 C   0  0  1  0  0  0  0  0  0  0  0  0
    5.7798   -4.7095   19.5565 O   0  0  0  0  0  0  0  0  0  0  0  0
    6.5839   -4.4794   20.4525 C   0  0  0  0  0  0  0  0  0  0  0  0
    7.3030   -4.8173   22.8284 C   0  0  1  0  0  0  0  0  0  0  0  0
    6.4581   -4.2993   23.9615 C   0  0  1  0  0  0  0  0  0  0  0  0
    4.5590   -5.5833   23.1036 C   0  0  1  0  0  0  0  0  0  0  0  0
    5.4250   -6.0614   21.9656 C   0  0  1  0  0  0  0  0  0  0  0  0
    3.5071   -3.8263   25.6036 C   0  0  0  0  0  0  0  0  0  0  0  0
    2.1971   -3.9353   25.2057 C   0  0  0  0  0  0  0  0  0  0  0  0
    1.5501   -2.6743   25.2587 C   0  0  0  0  0  0  0  0  0  0  0  0
    2.3401   -1.6923   25.7546 C   0  0  0  0  0  0  0  0  0  0  0  0
    5.4051   -5.2803   24.2726 N   0  0  0  0  0  0  0  0  0  0  0  0
    3.9132   -6.3272   25.9377 O   0  0  0  0  0  0  0  0  0  0  0  0
    5.6592   -4.7392   26.6685 O   0  0  0  0  0  0  0  0  0  0  0  0
    4.6621   -5.1302   25.7206 S   0  0  2  0  0  0  0  0  0  0  0  0
    3.9451   -2.2152   25.9855 S   0  0  0  0  0  0  0  0  0  0  0  0
    7.6544   -3.0775   19.2122 H   0  0  0  0  0  0  0  0  0  0  0  0
    7.6351   -2.6672   20.9608 H   0  0  0  0  0  0  0  0  0  0  0  0
    8.6832   -3.9974   20.3618 H   0  0  0  0  0  0  0  0  0  0  0  0
    7.7943   -5.7520   23.1364 H   0  0  0  0  0  0  0  0  0  0  0  0
    8.0671   -4.0692   22.5705 H   0  0  0  0  0  0  0  0  0  0  0  0
    7.0891   -4.1440   24.8489 H   0  0  0  0  0  0  0  0  0  0  0  0
    5.9960   -3.3450   23.6686 H   0  0  0  0  0  0  0  0  0  0  0  0
    4.0189   -4.6755   22.7969 H   0  0  0  0  0  0  0  0  0  0  0  0
    3.8355   -6.3684   23.3685 H   0  0  0  0  0  0  0  0  0  0  0  0
    4.7988   -6.2173   21.0747 H   0  0  0  0  0  0  0  0  0  0  0  0
    5.9033   -7.0108   22.2484 H   0  0  0  0  0  0  0  0  0  0  0  0
    1.7244   -4.8553   24.8949 H   0  0  0  0  0  0  0  0  0  0  0  0
    0.5319   -2.5136   24.9366 H   0  0  0  0  0  0  0  0  0  0  0  0
    1.9931   -0.6942   25.9777 H   0  0  0  0  0  0  0  0  0  0  0  0
  1  4  1  0
  1  5  1  0
  1  8  1  0
  2  4  1  0
  2 18  1  6
  2 19  1  0
  2 20  1  0
  3  4  2  0
  5  6  1  0
  5 21  1  1
  5 22  1  0
  6 13  1  0
  6 23  1  1
  6 24  1  0
  7  8  1  0
  7 13  1  0
  7 25  1  6
  7 26  1  0
  8 27  1  6
  8 28  1  0
  9 10  2  0
  9 16  1  0
  9 17  1  0
 10 11  1  0
 10 29  1  0
 11 12  2  0
 11 30  1  0
 12 17  1  0
 12 31  1  0
 16 13  1  6
 14 16  2  0
 15 16  2  0
M  END
$$$$
