LIG(B-307)
     RDKit          3D

 41 43  0  0  0  0  0  0  0  0999 V2000
  185.9694    0.7870  163.9159 C   0  0  0  0  0  0  0  0  0  0  0  0
  185.7110   -0.4019  163.1174 C   0  0  0  0  0  0  0  0  0  0  0  0
  177.7372   -2.6542  156.4532 C   0  0  1  0  0  0  0  0  0  0  0  0
  179.1021   -2.4644  157.0427 C   0  0  0  0  0  0  0  0  0  0  0  0
  180.1522   -3.3061  156.6684 C   0  0  0  0  0  0  0  0  0  0  0  0
  179.3887   -1.4552  157.9736 C   0  0  0  0  0  0  0  0  0  0  0  0
  180.6525   -1.2874  158.5115 C   0  0  0  0  0  0  0  0  0  0  0  0
  187.6639    1.4659  162.2302 C   0  0  0  0  0  0  0  0  0  0  0  0
  186.4176   -0.6037  161.9719 C   0  0  0  0  0  0  0  0  0  0  0  0
  181.7058   -2.1482  158.1324 C   0  0  0  0  0  0  0  0  0  0  0  0
  181.4291   -3.1593  157.1934 C   0  0  0  0  0  0  0  0  0  0  0  0
  186.2737   -1.7751  161.0368 C   0  0  0  0  0  0  0  0  0  0  0  0
  184.6528   -0.4637  159.6439 C   0  0  1  0  0  0  0  0  0  0  0  0
  183.1878   -0.8693  159.6315 C   0  0  1  0  0  0  0  0  0  0  0  0
  183.8351   -3.1373  158.8782 C   0  0  1  0  0  0  0  0  0  0  0  0
  185.2984   -2.7298  158.9975 C   0  0  1  0  0  0  0  0  0  0  0  0
  176.7730   -2.8504  157.3887 F   0  0  0  0  0  0  0  0  0  0  0  0
  177.3485   -1.5699  155.7365 F   0  0  0  0  0  0  0  0  0  0  0  0
  177.6990   -3.7113  155.6060 F   0  0  0  0  0  0  0  0  0  0  0  0
  187.3537    0.3096  161.5436 N   0  0  0  0  0  0  0  0  0  0  0  0
  186.9435    1.6468  163.3969 N   0  0  0  0  0  0  0  0  0  0  0  0
  185.4608   -1.6390  159.9681 N   0  0  0  0  0  0  0  0  0  0  0  0
  182.9815   -1.9663  158.6641 N   0  0  0  0  0  0  0  0  0  0  0  0
  188.5076    2.2660  161.8381 O   0  0  0  0  0  0  0  0  0  0  0  0
  185.3961    1.0787  164.9702 O   0  0  0  0  0  0  0  0  0  0  0  0
  186.8071   -2.8386  161.3820 O   0  0  0  0  0  0  0  0  0  0  0  0
  178.1267   -0.3462  158.5133 Cl  0  0  0  0  0  0  0  0  0  0  0  0
  184.9654   -1.1175  163.4309 H   0  0  0  0  0  0  0  0  0  0  0  0
  179.9658   -4.0921  155.9515 H   0  0  0  0  0  0  0  0  0  0  0  0
  180.8338   -0.4957  159.2234 H   0  0  0  0  0  0  0  0  0  0  0  0
  182.2172   -3.8272  156.8784 H   0  0  0  0  0  0  0  0  0  0  0  0
  184.9390   -0.0792  158.6538 H   0  0  0  0  0  0  0  0  0  0  0  0
  184.8145    0.3174  160.4013 H   0  0  0  0  0  0  0  0  0  0  0  0
  182.8940   -1.2079  160.6360 H   0  0  0  0  0  0  0  0  0  0  0  0
  182.5719   -0.0054  159.3411 H   0  0  0  0  0  0  0  0  0  0  0  0
  183.7213   -3.8259  158.0280 H   0  0  0  0  0  0  0  0  0  0  0  0
  183.5257   -3.6438  159.8043 H   0  0  0  0  0  0  0  0  0  0  0  0
  185.8881   -3.5973  159.3286 H   0  0  0  0  0  0  0  0  0  0  0  0
  185.6602   -2.3941  158.0144 H   0  0  0  0  0  0  0  0  0  0  0  0
  187.7305    0.1307  160.6348 H   0  0  0  0  0  0  0  0  0  0  0  0
  187.1414    2.4751  163.9248 H   0  0  0  0  0  0  0  0  0  0  0  0
  1  2  1  0
  1 21  1  0
  1 25  2  0
  2  9  2  0
  2 28  1  0
  3  4  1  0
  3 17  1  1
  3 18  1  0
  3 19  1  0
  4  5  2  0
  4  6  1  0
  5 11  1  0
  5 29  1  0
  6  7  2  0
  6 27  1  0
  7 10  1  0
  7 30  1  0
  8 20  1  0
  8 21  1  0
  8 24  2  0
  9 12  1  0
  9 20  1  0
 10 11  2  0
 10 23  1  0
 11 31  1  0
 12 22  1  0
 12 26  2  0
 13 14  1  0
 13 22  1  0
 13 32  1  6
 13 33  1  0
 14 23  1  0
 14 34  1  1
 14 35  1  0
 15 16  1  0
 15 23  1  0
 15 36  1  6
 15 37  1  0
 16 22  1  0
 16 38  1  1
 16 39  1  0
 20 40  1  0
 21 41  1  0
M  END
$$$$
