LIG(A-306)
     RDKit          3D

 40 42  0  0  1  0  0  0  0  0999 V2000
  -14.0895   -2.5920  -21.6047 Cl  0  0  0  0  0  0  0  0  0  0  0  0
  -12.9382   -1.6060  -22.4422 C   0  0  0  0  0  0  0  0  0  0  0  0
  -13.3635   -0.5904  -23.2861 C   0  0  0  0  0  0  0  0  0  0  0  0
  -15.0466   -0.2275  -23.4668 Cl  0  0  0  0  0  0  0  0  0  0  0  0
  -12.4356    0.1751  -23.9648 C   0  0  0  0  0  0  0  0  0  0  0  0
  -11.0866   -0.0640  -23.7897 C   0  0  0  0  0  0  0  0  0  0  0  0
  -11.5844   -1.8377  -22.2604 C   0  0  0  0  0  0  0  0  0  0  0  0
  -10.6438   -1.0615  -22.9326 C   0  0  0  0  0  0  0  0  0  0  0  0
   -9.1553   -1.2813  -22.7061 C   0  0  2  0  0  0  0  0  0  0  0  0
   -8.7610   -2.6987  -22.8488 N   0  0  1  0  0  0  0  0  0  0  0  0
   -8.1502   -2.9200  -24.1594 C   0  0  1  0  0  0  0  0  0  0  0  0
   -8.6582   -0.5087  -21.4589 C   0  0  0  0  0  0  0  0  0  0  0  0
   -9.1918    0.5420  -21.1024 O   0  0  0  0  0  0  0  0  0  0  0  0
   -7.5661   -1.0389  -20.8646 N   0  0  0  0  0  0  0  0  0  0  0  0
   -6.8017   -0.4664  -19.8307 C   0  0  0  0  0  0  0  0  0  0  0  0
   -5.7637    0.4526  -20.1830 C   0  0  0  0  0  0  0  0  0  0  0  0
   -5.3292    0.6843  -21.5145 C   0  0  0  0  0  0  0  0  0  0  0  0
   -4.3385    1.5877  -21.7843 C   0  0  0  0  0  0  0  0  0  0  0  0
   -3.7309    2.3000  -20.7596 C   0  0  0  0  0  0  0  0  0  0  0  0
   -4.1120    2.1111  -19.4611 C   0  0  0  0  0  0  0  0  0  0  0  0
   -5.1375    1.1852  -19.1371 C   0  0  0  0  0  0  0  0  0  0  0  0
   -5.5735    0.9413  -17.8112 C   0  0  0  0  0  0  0  0  0  0  0  0
   -6.5172    0.0682  -17.4841 N   0  0  0  0  0  0  0  0  0  0  0  0
   -7.1024   -0.6125  -18.4780 C   0  0  0  0  0  0  0  0  0  0  0  0
  -12.7642    0.9591  -24.6310 H   0  0  0  0  0  0  0  0  0  0  0  0
  -10.3660    0.5340  -24.3277 H   0  0  0  0  0  0  0  0  0  0  0  0
  -11.2574   -2.6231  -21.5950 H   0  0  0  0  0  0  0  0  0  0  0  0
   -8.6716   -0.7681  -23.5503 H   0  0  0  0  0  0  0  0  0  0  0  0
   -8.1029   -2.9327  -22.1333 H   0  0  0  0  0  0  0  0  0  0  0  0
   -9.5710   -3.2781  -22.7592 H   0  0  0  0  0  0  0  0  0  0  0  0
   -7.8606   -3.9768  -24.2557 H   0  0  0  0  0  0  0  0  0  0  0  0
   -8.8729   -2.6647  -24.9484 H   0  0  0  0  0  0  0  0  0  0  0  0
   -7.2579   -2.2846  -24.2599 H   0  0  0  0  0  0  0  0  0  0  0  0
   -7.2692   -1.9347  -21.1953 H   0  0  0  0  0  0  0  0  0  0  0  0
   -5.7878    0.1393  -22.3263 H   0  0  0  0  0  0  0  0  0  0  0  0
   -4.0256    1.7485  -22.8054 H   0  0  0  0  0  0  0  0  0  0  0  0
   -2.9502    3.0097  -20.9905 H   0  0  0  0  0  0  0  0  0  0  0  0
   -3.6286    2.6714  -18.6745 H   0  0  0  0  0  0  0  0  0  0  0  0
   -5.1073    1.5027  -17.0151 H   0  0  0  0  0  0  0  0  0  0  0  0
   -7.8652   -1.3289  -18.2108 H   0  0  0  0  0  0  0  0  0  0  0  0
  1  2  1  0
  2  3  2  0
  2  7  1  0
  3  4  1  0
  3  5  1  0
  5  6  2  0
  5 25  1  0
  6  8  1  0
  6 26  1  0
  7  8  2  0
  7 27  1  0
  8  9  1  0
  9 10  1  0
  9 12  1  0
  9 28  1  6
 10 11  1  0
 10 29  1  1
 10 30  1  0
 11 31  1  1
 11 32  1  0
 11 33  1  0
 12 13  2  0
 12 14  1  0
 14 15  1  0
 14 34  1  0
 15 16  2  0
 15 24  1  0
 16 17  1  0
 16 21  1  0
 17 18  2  0
 17 35  1  0
 18 19  1  0
 18 36  1  0
 19 20  2  0
 19 37  1  0
 20 21  1  0
 20 38  1  0
 21 22  2  0
 22 23  1  0
 22 39  1  0
 23 24  2  0
 24 40  1  0
M  CHG  1  10   1
M  END
$$$$
