LIG(A-306)
     RDKit          3D

 74 79  0  0  1  0  0  0  0  0999 V2000
  -10.0382    1.0037  -21.3569 O   0  0  0  0  0  0  0  0  0  0  0  0
   -9.5815   -0.0082  -21.8495 C   0  0  0  0  0  0  0  0  0  0  0  0
  -10.1488   -0.7603  -23.0595 C   0  0  1  0  0  0  0  0  0  0  0  0
  -11.6752   -0.6217  -23.0397 C   0  0  0  0  0  0  0  0  0  0  0  0
  -12.4337   -1.4225  -22.1858 C   0  0  0  0  0  0  0  0  0  0  0  0
  -13.7884   -1.1818  -22.0541 C   0  0  0  0  0  0  0  0  0  0  0  0
  -14.7165   -2.1636  -20.9516 Cl  0  0  0  0  0  0  0  0  0  0  0  0
  -14.4185   -0.1881  -22.7679 C   0  0  0  0  0  0  0  0  0  0  0  0
  -13.6783    0.5756  -23.6505 C   0  0  0  0  0  0  0  0  0  0  0  0
  -12.3066    0.3768  -23.7995 C   0  0  0  0  0  0  0  0  0  0  0  0
  -11.5436    1.2401  -24.7848 C   0  0  1  0  0  0  0  0  0  0  0  0
  -10.1051    1.2422  -24.4901 N   0  0  0  0  0  0  0  0  0  0  0  0
   -9.2056    2.5882  -24.6685 S   0  0  1  0  0  0  0  0  0  0  0  0
   -9.9641    3.5013  -25.4645 O   0  0  0  0  0  0  0  0  0  0  0  0
   -9.0261    3.2738  -23.0340 C   0  0  1  0  0  0  0  0  0  0  0  0
   -8.2210    4.5504  -22.8287 C   0  0  2  0  0  0  0  0  0  0  0  0
   -9.0756    5.7414  -22.8430 C   0  0  0  0  0  0  0  0  0  0  0  0
   -9.7767    6.6387  -22.8350 N   0  0  0  0  0  0  0  0  0  0  0  0
   -6.8512    4.6891  -23.4566 C   0  0  1  0  0  0  0  0  0  0  0  0
   -6.9638    4.5508  -21.9855 C   0  0  2  0  0  0  0  0  0  0  0  0
   -7.9137    2.1766  -25.1211 O   0  0  0  0  0  0  0  0  0  0  0  0
   -9.5436   -0.1104  -24.3300 C   0  0  2  0  0  0  0  0  0  0  0  0
   -9.6134   -2.1908  -22.8189 C   0  0  1  0  0  0  0  0  0  0  0  0
   -8.2958   -1.9758  -22.0820 C   0  0  1  0  0  0  0  0  0  0  0  0
   -8.4937   -0.6910  -21.3918 N   0  0  0  0  0  0  0  0  0  0  0  0
   -7.6383   -0.2552  -20.3228 C   0  0  0  0  0  0  0  0  0  0  0  0
   -8.0391   -0.4694  -19.0084 C   0  0  0  0  0  0  0  0  0  0  0  0
   -7.4048   -0.0132  -17.9179 N   0  0  0  0  0  0  0  0  0  0  0  0
   -6.2971    0.6911  -18.1063 C   0  0  0  0  0  0  0  0  0  0  0  0
   -6.4365    0.4896  -20.5287 C   0  0  0  0  0  0  0  0  0  0  0  0
   -5.7486    0.9808  -19.3806 C   0  0  0  0  0  0  0  0  0  0  0  0
   -4.5805    1.7611  -19.5626 C   0  0  0  0  0  0  0  0  0  0  0  0
   -4.1134    2.0379  -20.8136 C   0  0  0  0  0  0  0  0  0  0  0  0
   -5.9219    0.7976  -21.8101 C   0  0  0  0  0  0  0  0  0  0  0  0
   -4.7847    1.5577  -21.9359 C   0  0  0  0  0  0  0  0  0  0  0  0
   -4.2258    1.9063  -23.1446 O   0  0  0  0  0  0  0  0  0  0  0  0
   -4.9771    1.6670  -24.3520 C   0  0  1  0  0  0  0  0  0  0  0  0
   -4.0326    1.7031  -25.5330 C   0  0  1  0  0  0  0  0  0  0  0  0
   -4.1091    2.9435  -26.3119 N   0  0  2  0  0  0  0  0  0  0  0  0
   -4.5165    2.6608  -27.6851 C   0  0  1  0  0  0  0  0  0  0  0  0
   -2.8307    3.6501  -26.3048 C   0  0  1  0  0  0  0  0  0  0  0  0
  -11.9664   -2.2236  -21.6323 H   0  0  0  0  0  0  0  0  0  0  0  0
  -15.4756   -0.0077  -22.6403 H   0  0  0  0  0  0  0  0  0  0  0  0
  -14.1708    1.3391  -24.2344 H   0  0  0  0  0  0  0  0  0  0  0  0
  -11.7006    0.8487  -25.8007 H   0  0  0  0  0  0  0  0  0  0  0  0
  -11.9228    2.2711  -24.7264 H   0  0  0  0  0  0  0  0  0  0  0  0
  -10.0410    3.4748  -22.6605 H   0  0  0  0  0  0  0  0  0  0  0  0
   -8.5542    2.4975  -22.4138 H   0  0  0  0  0  0  0  0  0  0  0  0
   -6.4363    3.8643  -24.0545 H   0  0  0  0  0  0  0  0  0  0  0  0
   -6.5440    5.6503  -23.8948 H   0  0  0  0  0  0  0  0  0  0  0  0
   -6.6324    3.6235  -21.4951 H   0  0  0  0  0  0  0  0  0  0  0  0
   -6.7401    5.4095  -21.3355 H   0  0  0  0  0  0  0  0  0  0  0  0
   -9.7933   -0.7201  -25.2109 H   0  0  0  0  0  0  0  0  0  0  0  0
   -8.4504   -0.0461  -24.2265 H   0  0  0  0  0  0  0  0  0  0  0  0
  -10.3151   -2.7719  -22.2025 H   0  0  0  0  0  0  0  0  0  0  0  0
   -9.4465   -2.7109  -23.7736 H   0  0  0  0  0  0  0  0  0  0  0  0
   -8.1121   -2.7855  -21.3605 H   0  0  0  0  0  0  0  0  0  0  0  0
   -7.4550   -1.9169  -22.7889 H   0  0  0  0  0  0  0  0  0  0  0  0
   -8.9354   -1.0514  -18.8526 H   0  0  0  0  0  0  0  0  0  0  0  0
   -5.7812    1.0670  -17.2350 H   0  0  0  0  0  0  0  0  0  0  0  0
   -4.0533    2.1414  -18.7001 H   0  0  0  0  0  0  0  0  0  0  0  0
   -3.2195    2.6319  -20.9348 H   0  0  0  0  0  0  0  0  0  0  0  0
   -6.4255    0.4335  -22.6934 H   0  0  0  0  0  0  0  0  0  0  0  0
   -5.4610    0.6807  -24.2962 H   0  0  0  0  0  0  0  0  0  0  0  0
   -5.7449    2.4459  -24.4694 H   0  0  0  0  0  0  0  0  0  0  0  0
   -3.0043    1.5909  -25.1589 H   0  0  0  0  0  0  0  0  0  0  0  0
   -4.2750    0.8605  -26.1973 H   0  0  0  0  0  0  0  0  0  0  0  0
   -4.7986    3.5349  -25.8937 H   0  0  0  0  0  0  0  0  0  0  0  0
   -4.5685    3.6011  -28.2537 H   0  0  0  0  0  0  0  0  0  0  0  0
   -3.7826    1.9889  -28.1542 H   0  0  0  0  0  0  0  0  0  0  0  0
   -5.5054    2.1790  -27.6823 H   0  0  0  0  0  0  0  0  0  0  0  0
   -2.9185    4.5739  -26.8955 H   0  0  0  0  0  0  0  0  0  0  0  0
   -2.5566    3.9015  -25.2696 H   0  0  0  0  0  0  0  0  0  0  0  0
   -2.0539    3.0068  -26.7439 H   0  0  0  0  0  0  0  0  0  0  0  0
  1  2  2  0
  3  2  1  1
  2 25  1  0
  3  4  1  0
  3 22  1  0
  3 23  1  0
  4  5  2  0
  4 10  1  0
  5  6  1  0
  5 42  1  0
  6  7  1  0
  6  8  2  0
  8  9  1  0
  8 43  1  0
  9 10  2  0
  9 44  1  0
 10 11  1  0
 11 12  1  0
 11 45  1  6
 11 46  1  0
 13 12  1  1
 12 22  1  0
 13 14  2  0
 13 15  1  0
 13 21  2  0
 15 16  1  0
 15 47  1  1
 15 48  1  0
 16 17  1  1
 16 19  1  0
 16 20  1  0
 17 18  3  0
 19 20  1  0
 19 49  1  6
 19 50  1  0
 20 51  1  1
 20 52  1  0
 22 53  1  6
 22 54  1  0
 23 24  1  0
 23 55  1  1
 23 56  1  0
 24 25  1  0
 24 57  1  1
 24 58  1  0
 25 26  1  0
 26 27  2  0
 26 30  1  0
 27 28  1  0
 27 59  1  0
 28 29  2  0
 29 31  1  0
 29 60  1  0
 30 31  2  0
 30 34  1  0
 31 32  1  0
 32 33  2  0
 32 61  1  0
 33 35  1  0
 33 62  1  0
 34 35  2  0
 34 63  1  0
 35 36  1  0
 36 37  1  0
 37 38  1  0
 37 64  1  1
 37 65  1  0
 38 39  1  0
 38 66  1  1
 38 67  1  0
 39 40  1  0
 39 41  1  0
 39 68  1  1
 40 69  1  6
 40 70  1  0
 40 71  1  0
 41 72  1  6
 41 73  1  0
 41 74  1  0
M  CHG  1  39   1
M  END
$$$$
