LIG(A-305)
     RDKit          3D

 44 46  0  0  1  0  0  0  0  0999 V2000
    8.4032   -0.1918   21.9593 N   0  0  0  0  0  0  0  0  0  0  0  0
    4.8202   -0.1092   21.5826 C   0  0  0  0  0  0  0  0  0  0  0  0
    8.5834   -0.0925   24.4203 C   0  0  1  0  0  0  0  0  0  0  0  0
   11.2412   -0.4792   22.5011 C   0  0  0  0  0  0  0  0  0  0  0  0
    8.2474    1.6161   20.6322 O   0  0  0  0  0  0  0  0  0  0  0  0
    3.5424    2.1529   20.5475 C   0  0  0  0  0  0  0  0  0  0  0  0
    8.9954    0.5163   23.0892 C   0  0  1  0  0  0  0  0  0  0  0  0
    6.1011    0.9912   18.2454 C   0  0  0  0  0  0  0  0  0  0  0  0
   13.2794    0.8045   22.6909 C   0  0  0  0  0  0  0  0  0  0  0  0
    6.1480   -0.1237   19.2845 C   0  0  1  0  0  0  0  0  0  0  0  0
    7.5760   -0.4879   19.7104 C   0  0  1  0  0  0  0  0  0  0  0  0
    3.8113    0.5360   22.2586 C   0  0  0  0  0  0  0  0  0  0  0  0
   10.5054    0.6000   22.9841 C   0  0  0  0  0  0  0  0  0  0  0  0
   12.6122   -0.3554   22.3570 C   0  0  0  0  0  0  0  0  0  0  0  0
    3.1595    1.6440   21.7765 C   0  0  0  0  0  0  0  0  0  0  0  0
    3.4293    0.0352   23.4647 F   0  0  0  0  0  0  0  0  0  0  0  0
    5.1921    0.3836   20.3345 C   0  0  0  0  0  0  0  0  0  0  0  0
   11.1686    1.7729   23.3199 C   0  0  0  0  0  0  0  0  0  0  0  0
    6.5236    1.0148   24.8394 C   0  0  1  0  0  0  0  0  0  0  0  0
    5.1363    1.8684   18.6154 N   0  0  0  0  0  0  0  0  0  0  0  0
    7.1754   -0.2093   24.5164 O   0  0  0  0  0  0  0  0  0  0  0  0
    6.8400    1.1020   17.2733 O   0  0  0  0  0  0  0  0  0  0  0  0
    4.5623    1.5226   19.8384 C   0  0  0  0  0  0  0  0  0  0  0  0
    8.0972    0.4102   20.8073 C   0  0  0  0  0  0  0  0  0  0  0  0
   13.5989   -1.8126   21.6421 Br  0  0  0  0  0  0  0  0  0  0  0  0
   12.5416    1.8777   23.1698 C   0  0  0  0  0  0  0  0  0  0  0  0
    8.2184   -1.1702   22.0516 H   0  0  0  0  0  0  0  0  0  0  0  0
    5.3098   -0.9731   22.0073 H   0  0  0  0  0  0  0  0  0  0  0  0
    9.0333   -1.0921   24.5123 H   0  0  0  0  0  0  0  0  0  0  0  0
    8.9466    0.5496   25.2362 H   0  0  0  0  0  0  0  0  0  0  0  0
   10.7469   -1.4036   22.2416 H   0  0  0  0  0  0  0  0  0  0  0  0
    3.0561    3.0283   20.1430 H   0  0  0  0  0  0  0  0  0  0  0  0
    8.6135    1.5477   23.0755 H   0  0  0  0  0  0  0  0  0  0  0  0
   14.3515    0.8760   22.5820 H   0  0  0  0  0  0  0  0  0  0  0  0
    5.7012   -1.0199   18.8294 H   0  0  0  0  0  0  0  0  0  0  0  0
    7.5825   -1.5268   20.0717 H   0  0  0  0  0  0  0  0  0  0  0  0
    8.2385   -0.3992   18.8368 H   0  0  0  0  0  0  0  0  0  0  0  0
    2.3659    2.1081   22.3434 H   0  0  0  0  0  0  0  0  0  0  0  0
   10.6076    2.6129   23.7024 H   0  0  0  0  0  0  0  0  0  0  0  0
    5.4378    0.8486   24.8969 H   0  0  0  0  0  0  0  0  0  0  0  0
    6.8903    1.3805   25.8098 H   0  0  0  0  0  0  0  0  0  0  0  0
    6.7393    1.7614   24.0609 H   0  0  0  0  0  0  0  0  0  0  0  0
    4.8683    2.6670   18.0764 H   0  0  0  0  0  0  0  0  0  0  0  0
   13.0409    2.8002   23.4271 H   0  0  0  0  0  0  0  0  0  0  0  0
  1  7  1  0
  1 24  1  0
  1 27  1  0
  2 12  2  0
  2 17  1  0
  2 28  1  0
  3  7  1  0
  3 21  1  0
  3 29  1  1
  3 30  1  0
  4 13  2  0
  4 14  1  0
  4 31  1  0
  5 24  2  0
  6 15  2  0
  6 23  1  0
  6 32  1  0
  7 13  1  0
  7 33  1  1
  8 10  1  0
  8 20  1  0
  8 22  2  0
  9 14  2  0
  9 26  1  0
  9 34  1  0
 10 11  1  0
 10 17  1  0
 10 35  1  6
 11 24  1  0
 11 36  1  1
 11 37  1  0
 12 15  1  0
 12 16  1  0
 13 18  1  0
 14 25  1  0
 15 38  1  0
 17 23  2  0
 18 26  2  0
 18 39  1  0
 19 21  1  0
 19 40  1  1
 19 41  1  0
 19 42  1  0
 20 23  1  0
 20 43  1  0
 26 44  1  0
M  END
$$$$
