LIG(A-305)
     RDKit          3D

 30 31  0  0  1  0  0  0  0  0999 V2000
    6.6965   -3.4368   19.9695 C   0  0  0  0  0  0  0  0  0  0  0  0
    7.3323   -2.6628   18.8464 C   0  0  1  0  0  0  0  0  0  0  0  0
    6.4507   -3.7837   22.4036 C   0  0  1  0  0  0  0  0  0  0  0  0
    7.5588   -4.3736   23.2425 C   0  0  1  0  0  0  0  0  0  0  0  0
    8.4736   -2.2015   22.9893 C   0  0  1  0  0  0  0  0  0  0  0  0
    9.7566   -1.4394   23.2262 C   0  0  0  0  0  0  0  0  0  0  0  0
    9.8916   -0.6693   24.3682 C   0  0  0  0  0  0  0  0  0  0  0  0
   11.0455    0.0428   24.6150 C   0  0  0  0  0  0  0  0  0  0  0  0
   12.0535   -0.0302   23.7050 C   0  0  0  0  0  0  0  0  0  0  0  0
   11.9735   -0.7733   22.5610 C   0  0  0  0  0  0  0  0  0  0  0  0
   10.8135   -1.4854   22.3291 C   0  0  0  0  0  0  0  0  0  0  0  0
    7.8715   -1.9666   21.6104 C   0  0  1  0  0  0  0  0  0  0  0  0
   13.1894    0.6729   23.9559 F   0  0  0  0  0  0  0  0  0  0  0  0
    7.0095   -3.0847   21.2355 N   0  0  0  0  0  0  0  0  0  0  0  0
    5.9255   -4.3539   19.7166 O   0  0  0  0  0  0  0  0  0  0  0  0
    8.7527   -3.5815   23.1844 O   0  0  0  0  0  0  0  0  0  0  0  0
    6.9861   -3.0635   17.8823 H   0  0  0  0  0  0  0  0  0  0  0  0
    7.0494   -1.6027   18.9257 H   0  0  0  0  0  0  0  0  0  0  0  0
    8.4264   -2.7561   18.9105 H   0  0  0  0  0  0  0  0  0  0  0  0
    5.7871   -4.5909   22.0598 H   0  0  0  0  0  0  0  0  0  0  0  0
    5.8756   -3.0703   23.0122 H   0  0  0  0  0  0  0  0  0  0  0  0
    7.2211   -4.4318   24.2877 H   0  0  0  0  0  0  0  0  0  0  0  0
    7.7845   -5.3849   22.8733 H   0  0  0  0  0  0  0  0  0  0  0  0
    7.7390   -1.8719   23.7388 H   0  0  0  0  0  0  0  0  0  0  0  0
    9.0788   -0.6257   25.0780 H   0  0  0  0  0  0  0  0  0  0  0  0
   11.1467    0.6427   25.5074 H   0  0  0  0  0  0  0  0  0  0  0  0
   12.7935   -0.8027   21.8589 H   0  0  0  0  0  0  0  0  0  0  0  0
   10.7279   -2.0869   21.4363 H   0  0  0  0  0  0  0  0  0  0  0  0
    7.2779   -1.0407   21.6267 H   0  0  0  0  0  0  0  0  0  0  0  0
    8.6816   -1.8699   20.8725 H   0  0  0  0  0  0  0  0  0  0  0  0
  1  2  1  0
  1 14  1  0
  1 15  2  0
  2 17  1  6
  2 18  1  0
  2 19  1  0
  3  4  1  0
  3 14  1  0
  3 20  1  6
  3 21  1  0
  4 16  1  0
  4 22  1  1
  4 23  1  0
  5  6  1  0
  5 12  1  0
  5 16  1  0
  5 24  1  1
  6  7  2  0
  6 11  1  0
  7  8  1  0
  7 25  1  0
  8  9  2  0
  8 26  1  0
  9 10  1  0
  9 13  1  0
 10 11  2  0
 10 27  1  0
 11 28  1  0
 12 14  1  0
 12 29  1  1
 12 30  1  0
M  END
$$$$
