LIG(A-305)
     RDKit          3D

 47 50  0  0  0  0  0  0  0  0999 V2000
    6.5920    1.0871   16.8342 O   0  0  0  0  0  0  0  0  0  0  0  0
    5.9142    0.8613   17.8414 C   0  0  0  0  0  0  0  0  0  0  0  0
    6.1273   -0.2507   18.7084 C   0  0  0  0  0  0  0  0  0  0  0  0
    4.9314    1.7364   18.2216 N   0  0  0  0  0  0  0  0  0  0  0  0
    4.1937    1.6295   19.3928 C   0  0  0  0  0  0  0  0  0  0  0  0
    4.4378    0.5535   20.2678 C   0  0  0  0  0  0  0  0  0  0  0  0
    3.7281    0.4787   21.4660 C   0  0  0  0  0  0  0  0  0  0  0  0
    2.7563    1.4208   21.7592 C   0  0  0  0  0  0  0  0  0  0  0  0
    2.4972    2.4528   20.8822 C   0  0  0  0  0  0  0  0  0  0  0  0
    3.2159    2.5727   19.7040 C   0  0  0  0  0  0  0  0  0  0  0  0
    5.4316   -0.4356   19.8636 C   0  0  0  0  0  0  0  0  0  0  0  0
    5.6306   -1.7076   20.6206 C   0  0  0  0  0  0  0  0  0  0  0  0
    5.0824   -2.7325   20.2328 O   0  0  0  0  0  0  0  0  0  0  0  0
    6.4099   -1.6896   21.7124 N   0  0  0  0  0  0  0  0  0  0  0  0
    6.4200   -2.7726   22.7044 C   0  0  1  0  0  0  0  0  0  0  0  0
    7.8360   -3.3038   22.8901 C   0  0  1  0  0  0  0  0  0  0  0  0
    7.3481   -0.5997   22.0101 C   0  0  1  0  0  0  0  0  0  0  0  0
    8.7501   -1.1549   22.1438 C   0  0  1  0  0  0  0  0  0  0  0  0
    8.7672   -2.2029   23.1718 N   0  0  0  0  0  0  0  0  0  0  0  0
    9.9503   -2.4600   23.8646 C   0  0  0  0  0  0  0  0  0  0  0  0
    9.9625   -3.3599   24.9396 C   0  0  0  0  0  0  0  0  0  0  0  0
   11.1396   -3.6070   25.6313 C   0  0  0  0  0  0  0  0  0  0  0  0
   12.3096   -2.9712   25.2600 C   0  0  0  0  0  0  0  0  0  0  0  0
   11.1423   -1.8251   23.4992 C   0  0  0  0  0  0  0  0  0  0  0  0
   12.3215   -2.0902   24.1870 C   0  0  0  0  0  0  0  0  0  0  0  0
   13.5984   -1.4704   23.7386 C   0  0  2  0  0  0  0  0  0  0  0  0
   14.5683   -2.3625   23.6464 F   0  0  0  0  0  0  0  0  0  0  0  0
   14.0207   -0.5414   24.5825 F   0  0  0  0  0  0  0  0  0  0  0  0
   13.5052   -0.8764   22.5366 F   0  0  0  0  0  0  0  0  0  0  0  0
    6.8756   -0.9802   18.4358 H   0  0  0  0  0  0  0  0  0  0  0  0
    4.7307    2.5043   17.6105 H   0  0  0  0  0  0  0  0  0  0  0  0
    3.9369   -0.3159   22.1670 H   0  0  0  0  0  0  0  0  0  0  0  0
    2.1978    1.3467   22.6806 H   0  0  0  0  0  0  0  0  0  0  0  0
    1.7276    3.1736   21.1158 H   0  0  0  0  0  0  0  0  0  0  0  0
    3.0194    3.3932   19.0297 H   0  0  0  0  0  0  0  0  0  0  0  0
    6.0473   -2.3884   23.6654 H   0  0  0  0  0  0  0  0  0  0  0  0
    5.7685   -3.5884   22.3582 H   0  0  0  0  0  0  0  0  0  0  0  0
    7.8490   -4.0127   23.7310 H   0  0  0  0  0  0  0  0  0  0  0  0
    8.1524   -3.8190   21.9713 H   0  0  0  0  0  0  0  0  0  0  0  0
    7.3231    0.1373   21.1940 H   0  0  0  0  0  0  0  0  0  0  0  0
    7.0562   -0.1133   22.9526 H   0  0  0  0  0  0  0  0  0  0  0  0
    9.0688   -1.5809   21.1810 H   0  0  0  0  0  0  0  0  0  0  0  0
    9.4381   -0.3468   22.4329 H   0  0  0  0  0  0  0  0  0  0  0  0
    9.0520   -3.8628   25.2304 H   0  0  0  0  0  0  0  0  0  0  0  0
   11.1419   -4.2976   26.4616 H   0  0  0  0  0  0  0  0  0  0  0  0
   13.2205   -3.1610   25.8083 H   0  0  0  0  0  0  0  0  0  0  0  0
   11.1467   -1.1244   22.6775 H   0  0  0  0  0  0  0  0  0  0  0  0
  1  2  2  0
  2  3  1  0
  2  4  1  0
  3 11  2  0
  3 30  1  0
  4  5  1  0
  4 31  1  0
  5  6  2  0
  5 10  1  0
  6  7  1  0
  6 11  1  0
  7  8  2  0
  7 32  1  0
  8  9  1  0
  8 33  1  0
  9 10  2  0
  9 34  1  0
 10 35  1  0
 11 12  1  0
 12 13  2  0
 12 14  1  0
 14 15  1  0
 14 17  1  0
 15 16  1  0
 15 36  1  1
 15 37  1  0
 16 19  1  0
 16 38  1  1
 16 39  1  0
 17 18  1  0
 17 40  1  6
 17 41  1  0
 18 19  1  0
 18 42  1  6
 18 43  1  0
 19 20  1  0
 20 21  2  0
 20 24  1  0
 21 22  1  0
 21 44  1  0
 22 23  2  0
 22 45  1  0
 23 25  1  0
 23 46  1  0
 24 25  2  0
 24 47  1  0
 25 26  1  0
 26 27  1  6
 26 28  1  0
 26 29  1  0
M  END
$$$$
