LIG(A-306)
     RDKit          3D

 49 53  0  0  1  0  0  0  0  0999 V2000
   -9.0136    0.5680  -21.3903 O   0  0  0  0  0  0  0  0  0  0  0  0
   -8.7292   -0.6231  -21.2846 C   0  0  0  0  0  0  0  0  0  0  0  0
   -7.9931   -1.1142  -20.2702 N   0  0  0  0  0  0  0  0  0  0  0  0
   -6.9917   -0.5121  -19.4774 C   0  0  0  0  0  0  0  0  0  0  0  0
   -6.0801    0.4626  -20.0113 C   0  0  0  0  0  0  0  0  0  0  0  0
   -5.7576    0.5754  -21.3883 C   0  0  0  0  0  0  0  0  0  0  0  0
   -4.7901    1.4407  -21.8186 C   0  0  0  0  0  0  0  0  0  0  0  0
   -4.0982    2.2350  -20.9158 C   0  0  0  0  0  0  0  0  0  0  0  0
   -4.3726    2.1692  -19.5806 C   0  0  0  0  0  0  0  0  0  0  0  0
   -5.3641    1.2798  -19.0914 C   0  0  0  0  0  0  0  0  0  0  0  0
   -5.6158    1.0938  -17.7127 C   0  0  0  0  0  0  0  0  0  0  0  0
   -6.4373    0.1840  -17.2197 N   0  0  0  0  0  0  0  0  0  0  0  0
   -7.0802   -0.6026  -18.0896 C   0  0  0  0  0  0  0  0  0  0  0  0
   -9.3098   -1.6856  -22.2195 C   0  0  1  0  0  0  0  0  0  0  0  0
  -10.7404   -1.3311  -22.5715 C   0  0  0  0  0  0  0  0  0  0  0  0
  -10.9956   -0.4011  -23.5871 C   0  0  0  0  0  0  0  0  0  0  0  0
  -12.2990    0.0038  -23.8661 C   0  0  0  0  0  0  0  0  0  0  0  0
  -13.3564   -0.5571  -23.1697 C   0  0  0  0  0  0  0  0  0  0  0  0
  -11.8129   -1.8989  -21.8891 C   0  0  0  0  0  0  0  0  0  0  0  0
  -13.1014   -1.5109  -22.2042 C   0  0  0  0  0  0  0  0  0  0  0  0
  -14.4351   -2.2447  -21.3580 Cl  0  0  0  0  0  0  0  0  0  0  0  0
   -8.4967   -1.8031  -23.5259 C   0  0  1  0  0  0  0  0  0  0  0  0
   -8.5627   -0.5102  -24.3435 C   0  0  1  0  0  0  0  0  0  0  0  0
   -9.9165    0.0572  -24.4249 N   0  0  0  0  0  0  0  0  0  0  0  0
  -10.0458    1.2572  -25.2327 C   0  0  1  0  0  0  0  0  0  0  0  0
  -10.4513    0.9409  -26.6353 C   0  0  0  0  0  0  0  0  0  0  0  0
  -11.3089   -0.0079  -27.0114 N   0  0  0  0  0  0  0  0  0  0  0  0
  -11.4256   -0.0021  -28.3733 N   0  0  0  0  0  0  0  0  0  0  0  0
  -10.6259    0.9605  -28.7750 C   0  0  0  0  0  0  0  0  0  0  0  0
   -9.9831    1.5956  -27.7607 N   0  0  0  0  0  0  0  0  0  0  0  0
   -8.1886   -2.0672  -20.0388 H   0  0  0  0  0  0  0  0  0  0  0  0
   -6.2850   -0.0322  -22.1087 H   0  0  0  0  0  0  0  0  0  0  0  0
   -4.5622    1.5064  -22.8722 H   0  0  0  0  0  0  0  0  0  0  0  0
   -3.3356    2.9114  -21.2727 H   0  0  0  0  0  0  0  0  0  0  0  0
   -3.8308    2.7992  -18.8907 H   0  0  0  0  0  0  0  0  0  0  0  0
   -5.1019    1.7389  -17.0154 H   0  0  0  0  0  0  0  0  0  0  0  0
   -7.7207   -1.3712  -17.6830 H   0  0  0  0  0  0  0  0  0  0  0  0
   -9.2960   -2.6583  -21.7059 H   0  0  0  0  0  0  0  0  0  0  0  0
  -12.4840    0.7522  -24.6225 H   0  0  0  0  0  0  0  0  0  0  0  0
  -14.3708   -0.2514  -23.3797 H   0  0  0  0  0  0  0  0  0  0  0  0
  -11.6394   -2.6367  -21.1197 H   0  0  0  0  0  0  0  0  0  0  0  0
   -7.4467   -2.0152  -23.2760 H   0  0  0  0  0  0  0  0  0  0  0  0
   -8.9043   -2.6285  -24.1281 H   0  0  0  0  0  0  0  0  0  0  0  0
   -7.9001    0.2330  -23.8759 H   0  0  0  0  0  0  0  0  0  0  0  0
   -8.2117   -0.7239  -25.3638 H   0  0  0  0  0  0  0  0  0  0  0  0
  -10.8068    1.9104  -24.7808 H   0  0  0  0  0  0  0  0  0  0  0  0
   -9.0781    1.7800  -25.2512 H   0  0  0  0  0  0  0  0  0  0  0  0
  -10.4922    1.2220  -29.8143 H   0  0  0  0  0  0  0  0  0  0  0  0
   -9.3309    2.3517  -27.8143 H   0  0  0  0  0  0  0  0  0  0  0  0
  1  2  2  0
  2  3  1  0
  2 14  1  0
  3  4  1  0
  3 31  1  0
  4  5  2  0
  4 13  1  0
  5  6  1  0
  5 10  1  0
  6  7  2  0
  6 32  1  0
  7  8  1  0
  7 33  1  0
  8  9  2  0
  8 34  1  0
  9 10  1  0
  9 35  1  0
 10 11  2  0
 11 12  1  0
 11 36  1  0
 12 13  2  0
 13 37  1  0
 14 15  1  0
 14 22  1  0
 14 38  1  1
 15 16  2  0
 15 19  1  0
 16 17  1  0
 16 24  1  0
 17 18  2  0
 17 39  1  0
 18 20  1  0
 18 40  1  0
 19 20  2  0
 19 41  1  0
 20 21  1  0
 22 23  1  0
 22 42  1  1
 22 43  1  0
 23 24  1  0
 23 44  1  1
 23 45  1  0
 24 25  1  0
 25 26  1  0
 25 46  1  1
 25 47  1  0
 26 27  2  0
 26 30  1  0
 27 28  1  0
 28 29  2  0
 29 30  1  0
 29 48  1  0
 30 49  1  0
M  END
$$$$
