LIG(A-306)
     RDKit          3D

 33 35  0  0  0  0  0  0  0  0999 V2000
   -9.6223    0.4812  -20.9628 O   0  0  0  0  0  0  0  0  0  0  0  0
   -9.0824   -0.5839  -21.2699 C   0  0  0  0  0  0  0  0  0  0  0  0
   -9.6817   -1.5299  -22.2933 C   0  0  1  0  0  0  0  0  0  0  0  0
  -11.1368   -1.2391  -22.5744 C   0  0  0  0  0  0  0  0  0  0  0  0
  -11.5148   -0.2180  -23.4327 C   0  0  0  0  0  0  0  0  0  0  0  0
  -12.7853    0.1465  -23.6575 N   0  0  0  0  0  0  0  0  0  0  0  0
  -13.7509   -0.5230  -23.0132 C   0  0  0  0  0  0  0  0  0  0  0  0
  -12.1483   -1.9343  -21.9234 C   0  0  0  0  0  0  0  0  0  0  0  0
  -13.4597   -1.5612  -22.1325 C   0  0  0  0  0  0  0  0  0  0  0  0
  -14.7209   -2.3334  -21.2100 Cl  0  0  0  0  0  0  0  0  0  0  0  0
   -7.9221   -1.0120  -20.7390 N   0  0  0  0  0  0  0  0  0  0  0  0
   -7.1414   -0.3886  -19.7504 C   0  0  0  0  0  0  0  0  0  0  0  0
   -6.0588    0.4545  -20.1539 C   0  0  0  0  0  0  0  0  0  0  0  0
   -5.6455    0.6193  -21.5035 C   0  0  0  0  0  0  0  0  0  0  0  0
   -4.6053    1.4472  -21.8237 C   0  0  0  0  0  0  0  0  0  0  0  0
   -3.9310    2.1535  -20.8302 C   0  0  0  0  0  0  0  0  0  0  0  0
   -4.2948    2.0289  -19.5196 C   0  0  0  0  0  0  0  0  0  0  0  0
   -5.3615    1.1730  -19.1442 C   0  0  0  0  0  0  0  0  0  0  0  0
   -5.7732    0.9880  -17.8032 C   0  0  0  0  0  0  0  0  0  0  0  0
   -6.7694    0.1940  -17.4288 N   0  0  0  0  0  0  0  0  0  0  0  0
   -7.4267   -0.4679  -18.3875 C   0  0  0  0  0  0  0  0  0  0  0  0
   -9.1165   -1.4365  -23.2323 H   0  0  0  0  0  0  0  0  0  0  0  0
   -9.5954   -2.5589  -21.9141 H   0  0  0  0  0  0  0  0  0  0  0  0
  -10.7357    0.3184  -23.9537 H   0  0  0  0  0  0  0  0  0  0  0  0
  -14.7822   -0.2499  -23.1814 H   0  0  0  0  0  0  0  0  0  0  0  0
  -11.9112   -2.7553  -21.2630 H   0  0  0  0  0  0  0  0  0  0  0  0
   -7.5725   -1.8801  -21.0912 H   0  0  0  0  0  0  0  0  0  0  0  0
   -6.1602    0.0833  -22.2872 H   0  0  0  0  0  0  0  0  0  0  0  0
   -4.3041    1.5545  -22.8553 H   0  0  0  0  0  0  0  0  0  0  0  0
   -3.1130    2.8056  -21.0989 H   0  0  0  0  0  0  0  0  0  0  0  0
   -3.7651    2.5874  -18.7620 H   0  0  0  0  0  0  0  0  0  0  0  0
   -5.2422    1.5282  -17.0335 H   0  0  0  0  0  0  0  0  0  0  0  0
   -8.2388   -1.1118  -18.0836 H   0  0  0  0  0  0  0  0  0  0  0  0
  1  2  2  0
  2  3  1  0
  2 11  1  0
  3  4  1  0
  3 22  1  6
  3 23  1  0
  4  5  2  0
  4  8  1  0
  5  6  1  0
  5 24  1  0
  6  7  2  0
  7  9  1  0
  7 25  1  0
  8  9  2  0
  8 26  1  0
  9 10  1  0
 11 12  1  0
 11 27  1  0
 12 13  2  0
 12 21  1  0
 13 14  1  0
 13 18  1  0
 14 15  2  0
 14 28  1  0
 15 16  1  0
 15 29  1  0
 16 17  2  0
 16 30  1  0
 17 18  1  0
 17 31  1  0
 18 19  2  0
 19 20  1  0
 19 32  1  0
 20 21  2  0
 21 33  1  0
M  END
$$$$
