LIG(A-306)
     RDKit          3D

 38 41  0  0  1  0  0  0  0  0999 V2000
   -9.7220    0.9896  -21.2293 O   0  0  0  0  0  0  0  0  0  0  0  0
   -9.2466   -0.0528  -21.6540 C   0  0  0  0  0  0  0  0  0  0  0  0
   -9.7371   -0.8636  -22.8479 C   0  0  2  0  0  0  0  0  0  0  0  0
  -11.2467   -0.7832  -23.0044 C   0  0  0  0  0  0  0  0  0  0  0  0
  -11.8216    0.0726  -23.9381 C   0  0  0  0  0  0  0  0  0  0  0  0
  -13.1998    0.2008  -24.0260 C   0  0  0  0  0  0  0  0  0  0  0  0
  -14.0245   -0.5167  -23.1712 C   0  0  0  0  0  0  0  0  0  0  0  0
  -12.0754   -1.5281  -22.1713 C   0  0  0  0  0  0  0  0  0  0  0  0
  -13.4442   -1.3633  -22.2477 C   0  0  0  0  0  0  0  0  0  0  0  0
  -14.4556   -2.1694  -21.0795 Cl  0  0  0  0  0  0  0  0  0  0  0  0
   -8.1686   -0.7111  -21.1262 N   0  0  0  0  0  0  0  0  0  0  0  0
   -7.9028   -2.0009  -21.7848 C   0  0  1  0  0  0  0  0  0  0  0  0
   -9.2063   -2.2772  -22.5221 C   0  0  2  0  0  0  0  0  0  0  0  0
   -7.3496   -0.2267  -20.0584 C   0  0  0  0  0  0  0  0  0  0  0  0
   -6.2327    0.6195  -20.3217 C   0  0  0  0  0  0  0  0  0  0  0  0
   -5.7931    0.9741  -21.6248 C   0  0  0  0  0  0  0  0  0  0  0  0
   -4.7484    1.8368  -21.8058 C   0  0  0  0  0  0  0  0  0  0  0  0
   -4.0907    2.3910  -20.7144 C   0  0  0  0  0  0  0  0  0  0  0  0
   -4.4682    2.0750  -19.4412 C   0  0  0  0  0  0  0  0  0  0  0  0
   -5.5441    1.1813  -19.2077 C   0  0  0  0  0  0  0  0  0  0  0  0
   -6.0002    0.8379  -17.9085 C   0  0  0  0  0  0  0  0  0  0  0  0
   -7.0292    0.0346  -17.6693 N   0  0  0  0  0  0  0  0  0  0  0  0
   -7.6778   -0.4738  -18.7282 C   0  0  0  0  0  0  0  0  0  0  0  0
   -9.2520   -0.4971  -23.7646 H   0  0  0  0  0  0  0  0  0  0  0  0
  -11.1883    0.6431  -24.6013 H   0  0  0  0  0  0  0  0  0  0  0  0
  -13.6327    0.8615  -24.7625 H   0  0  0  0  0  0  0  0  0  0  0  0
  -15.0983   -0.4149  -23.2272 H   0  0  0  0  0  0  0  0  0  0  0  0
  -11.6508   -2.2307  -21.4695 H   0  0  0  0  0  0  0  0  0  0  0  0
   -7.0596   -1.9212  -22.4866 H   0  0  0  0  0  0  0  0  0  0  0  0
   -7.6912   -2.7874  -21.0454 H   0  0  0  0  0  0  0  0  0  0  0  0
   -9.0244   -2.8515  -23.4424 H   0  0  0  0  0  0  0  0  0  0  0  0
   -9.9128   -2.8254  -21.8815 H   0  0  0  0  0  0  0  0  0  0  0  0
   -6.2922    0.5555  -22.4864 H   0  0  0  0  0  0  0  0  0  0  0  0
   -4.4312    2.0901  -22.8066 H   0  0  0  0  0  0  0  0  0  0  0  0
   -3.2731    3.0781  -20.8750 H   0  0  0  0  0  0  0  0  0  0  0  0
   -3.9426    2.5097  -18.6038 H   0  0  0  0  0  0  0  0  0  0  0  0
   -5.4773    1.2564  -17.0614 H   0  0  0  0  0  0  0  0  0  0  0  0
   -8.5180   -1.1239  -18.5338 H   0  0  0  0  0  0  0  0  0  0  0  0
  1  2  2  0
  2  3  1  0
  2 11  1  0
  3  4  1  0
  3 13  1  0
  3 24  1  6
  4  5  2  0
  4  8  1  0
  5  6  1  0
  5 25  1  0
  6  7  2  0
  6 26  1  0
  7  9  1  0
  7 27  1  0
  8  9  2  0
  8 28  1  0
  9 10  1  0
 11 12  1  0
 11 14  1  0
 12 13  1  0
 12 29  1  6
 12 30  1  0
 13 31  1  6
 13 32  1  0
 14 15  2  0
 14 23  1  0
 15 16  1  0
 15 20  1  0
 16 17  2  0
 16 33  1  0
 17 18  1  0
 17 34  1  0
 18 19  2  0
 18 35  1  0
 19 20  1  0
 19 36  1  0
 20 21  2  0
 21 22  1  0
 21 37  1  0
 22 23  2  0
 23 38  1  0
M  END
$$$$
