LIG(A-305)
     RDKit          3D

 33 35  0  0  0  0  0  0  0  0999 V2000
    8.9287    0.9595   21.3032 O   0  0  0  0  0  0  0  0  0  0  0  0
    8.5656   -0.1725   21.6103 C   0  0  0  0  0  0  0  0  0  0  0  0
    9.0786   -0.8804   22.8504 C   0  0  1  0  0  0  0  0  0  0  0  0
   10.5557   -0.6306   23.0412 C   0  0  0  0  0  0  0  0  0  0  0  0
   11.0029    0.3634   23.9021 C   0  0  0  0  0  0  0  0  0  0  0  0
   12.3369    0.7413   23.9189 C   0  0  0  0  0  0  0  0  0  0  0  0
   13.2518    0.1091   23.0899 C   0  0  0  0  0  0  0  0  0  0  0  0
   11.4825   -1.2927   22.2421 C   0  0  0  0  0  0  0  0  0  0  0  0
   12.8106   -0.9159   22.2800 C   0  0  0  0  0  0  0  0  0  0  0  0
   13.9554   -1.7631   21.2759 Cl  0  0  0  0  0  0  0  0  0  0  0  0
    7.6994   -0.9014   20.8485 N   0  0  0  0  0  0  0  0  0  0  0  0
    7.1154   -0.4014   19.6885 C   0  0  0  0  0  0  0  0  0  0  0  0
    6.0555    0.4747   19.7465 N   0  0  0  0  0  0  0  0  0  0  0  0
    5.7694    0.8176   18.4285 C   0  0  0  0  0  0  0  0  0  0  0  0
    6.5942    0.1945   17.5855 N   0  0  0  0  0  0  0  0  0  0  0  0
    7.4132   -0.5586   18.3765 C   0  0  0  0  0  0  0  0  0  0  0  0
    5.3386    0.9869   20.8126 C   0  0  0  0  0  0  0  0  0  0  0  0
    4.3247    1.8480   20.5776 C   0  0  0  0  0  0  0  0  0  0  0  0
    4.0056    2.2239   19.2486 C   0  0  0  0  0  0  0  0  0  0  0  0
    4.7075    1.7197   18.1916 C   0  0  0  0  0  0  0  0  0  0  0  0
    8.5336   -0.5069   23.7298 H   0  0  0  0  0  0  0  0  0  0  0  0
    8.9070   -1.9618   22.7446 H   0  0  0  0  0  0  0  0  0  0  0  0
   10.3029    0.8480   24.5666 H   0  0  0  0  0  0  0  0  0  0  0  0
   12.6646    1.5302   24.5796 H   0  0  0  0  0  0  0  0  0  0  0  0
   14.2880    0.4134   23.0789 H   0  0  0  0  0  0  0  0  0  0  0  0
   11.1649   -2.0974   21.5956 H   0  0  0  0  0  0  0  0  0  0  0  0
    7.4753   -1.8328   21.1354 H   0  0  0  0  0  0  0  0  0  0  0  0
    6.6094    0.2640   16.5880 H   0  0  0  0  0  0  0  0  0  0  0  0
    8.1991   -1.1986   18.0034 H   0  0  0  0  0  0  0  0  0  0  0  0
    5.5873    0.7009   21.8239 H   0  0  0  0  0  0  0  0  0  0  0  0
    3.7566    2.2504   21.4032 H   0  0  0  0  0  0  0  0  0  0  0  0
    3.1974    2.9176   19.0700 H   0  0  0  0  0  0  0  0  0  0  0  0
    4.4532    2.0080   17.1823 H   0  0  0  0  0  0  0  0  0  0  0  0
  1  2  2  0
  2  3  1  0
  2 11  1  0
  3  4  1  0
  3 21  1  1
  3 22  1  0
  4  5  2  0
  4  8  1  0
  5  6  1  0
  5 23  1  0
  6  7  2  0
  6 24  1  0
  7  9  1  0
  7 25  1  0
  8  9  2  0
  8 26  1  0
  9 10  1  0
 11 12  1  0
 11 27  1  0
 12 13  1  0
 12 16  2  0
 13 14  1  0
 13 17  1  0
 14 15  2  0
 14 20  1  0
 15 16  1  0
 15 28  1  0
 16 29  1  0
 17 18  2  0
 17 30  1  0
 18 19  1  0
 18 31  1  0
 19 20  2  0
 19 32  1  0
 20 33  1  0
M  CHG  1  15   1
M  END
$$$$
