LIG(A-306)
     RDKit          3D

 39 42  0  0  1  0  0  0  0  0999 V2000
   -9.3846    0.3606  -21.1847 O   0  0  0  0  0  0  0  0  0  0  0  0
   -8.8864   -0.7347  -21.4380 C   0  0  0  0  0  0  0  0  0  0  0  0
   -9.4310   -1.6448  -22.5434 C   0  0  2  0  0  0  0  0  0  0  0  0
   -8.6863   -1.4510  -23.8787 C   0  0  1  0  0  0  0  0  0  0  0  0
   -9.0140   -0.1013  -24.4707 C   0  0  1  0  0  0  0  0  0  0  0  0
  -10.4396    0.1366  -24.6211 O   0  0  0  0  0  0  0  0  0  0  0  0
  -10.9036   -1.3627  -22.7515 C   0  0  0  0  0  0  0  0  0  0  0  0
  -11.3159   -0.4903  -23.7680 C   0  0  0  0  0  0  0  0  0  0  0  0
  -12.6717   -0.2525  -23.9665 C   0  0  0  0  0  0  0  0  0  0  0  0
  -13.1892    0.7043  -25.3206 Cl  0  0  0  0  0  0  0  0  0  0  0  0
  -13.6280   -0.8429  -23.1662 C   0  0  0  0  0  0  0  0  0  0  0  0
  -11.8760   -1.9771  -21.9623 C   0  0  0  0  0  0  0  0  0  0  0  0
  -13.2117   -1.7042  -22.1756 C   0  0  0  0  0  0  0  0  0  0  0  0
  -14.4031   -2.4539  -21.1506 Cl  0  0  0  0  0  0  0  0  0  0  0  0
   -7.8197   -1.2394  -20.7721 N   0  0  0  0  0  0  0  0  0  0  0  0
   -7.0770   -0.6406  -19.7371 C   0  0  0  0  0  0  0  0  0  0  0  0
   -6.0303    0.2701  -20.0834 C   0  0  0  0  0  0  0  0  0  0  0  0
   -5.5586    0.4655  -21.4093 C   0  0  0  0  0  0  0  0  0  0  0  0
   -4.5868    1.3891  -21.6815 C   0  0  0  0  0  0  0  0  0  0  0  0
   -4.0337    2.1575  -20.6626 C   0  0  0  0  0  0  0  0  0  0  0  0
   -4.4424    1.9921  -19.3687 C   0  0  0  0  0  0  0  0  0  0  0  0
   -5.4462    1.0433  -19.0435 C   0  0  0  0  0  0  0  0  0  0  0  0
   -5.9149    0.8320  -17.7246 C   0  0  0  0  0  0  0  0  0  0  0  0
   -6.8615   -0.0360  -17.3983 N   0  0  0  0  0  0  0  0  0  0  0  0
   -7.4135   -0.7494  -18.3880 C   0  0  0  0  0  0  0  0  0  0  0  0
   -9.3116   -2.6913  -22.2264 H   0  0  0  0  0  0  0  0  0  0  0  0
   -7.6025   -1.5165  -23.7025 H   0  0  0  0  0  0  0  0  0  0  0  0
   -8.9918   -2.2396  -24.5822 H   0  0  0  0  0  0  0  0  0  0  0  0
   -8.5988    0.6770  -23.8135 H   0  0  0  0  0  0  0  0  0  0  0  0
   -8.5433   -0.0329  -25.4626 H   0  0  0  0  0  0  0  0  0  0  0  0
  -14.6775   -0.6347  -23.3130 H   0  0  0  0  0  0  0  0  0  0  0  0
  -11.5834   -2.6664  -21.1841 H   0  0  0  0  0  0  0  0  0  0  0  0
   -7.5226   -2.1526  -21.0512 H   0  0  0  0  0  0  0  0  0  0  0  0
   -5.9732   -0.1237  -22.2140 H   0  0  0  0  0  0  0  0  0  0  0  0
   -4.2459    1.5231  -22.6975 H   0  0  0  0  0  0  0  0  0  0  0  0
   -3.2754    2.8904  -20.8956 H   0  0  0  0  0  0  0  0  0  0  0  0
   -3.9971    2.5891  -18.5865 H   0  0  0  0  0  0  0  0  0  0  0  0
   -5.4718    1.4167  -16.9320 H   0  0  0  0  0  0  0  0  0  0  0  0
   -8.1780   -1.4639  -18.1210 H   0  0  0  0  0  0  0  0  0  0  0  0
  1  2  2  0
  2  3  1  0
  2 15  1  0
  3  4  1  0
  3  7  1  0
  3 26  1  1
  4  5  1  0
  4 27  1  1
  4 28  1  0
  5  6  1  0
  5 29  1  1
  5 30  1  0
  6  8  1  0
  7  8  2  0
  7 12  1  0
  8  9  1  0
  9 10  1  0
  9 11  2  0
 11 13  1  0
 11 31  1  0
 12 13  2  0
 12 32  1  0
 13 14  1  0
 15 16  1  0
 15 33  1  0
 16 17  2  0
 16 25  1  0
 17 18  1  0
 17 22  1  0
 18 19  2  0
 18 34  1  0
 19 20  1  0
 19 35  1  0
 20 21  2  0
 20 36  1  0
 21 22  1  0
 21 37  1  0
 22 23  2  0
 23 24  1  0
 23 38  1  0
 24 25  2  0
 25 39  1  0
M  END
$$$$
