LIG(A-307)
     RDKit          3D

 50 53  0  0  0  0  0  0  0  0999 V2000
    9.0139    1.2653   21.3405 O   0  0  0  0  0  0  0  0  0  0  0  0
    8.8811    0.1253   21.7744 C   0  0  0  0  0  0  0  0  0  0  0  0
    7.8340   -0.8158   21.1786 C   0  0  1  0  0  0  0  0  0  0  0  0
    7.1287   -0.1968   20.0788 N   0  0  0  0  0  0  0  0  0  0  0  0
    6.0286    0.6061   20.1011 C   0  0  0  0  0  0  0  0  0  0  0  0
    5.2308    1.1120   21.1163 C   0  0  0  0  0  0  0  0  0  0  0  0
    4.1527    1.9079   20.7527 C   0  0  0  0  0  0  0  0  0  0  0  0
    3.8903    2.1900   19.4147 C   0  0  0  0  0  0  0  0  0  0  0  0
    4.6971    1.6801   18.4075 C   0  0  0  0  0  0  0  0  0  0  0  0
    5.7813    0.8822   18.7612 C   0  0  0  0  0  0  0  0  0  0  0  0
    6.7392    0.2533   17.9969 N   0  0  0  0  0  0  0  0  0  0  0  0
    7.5404   -0.3907   18.7997 N   0  0  0  0  0  0  0  0  0  0  0  0
    9.6524   -0.3637   22.7822 N   0  0  0  0  0  0  0  0  0  0  0  0
    9.5606   -1.7918   23.2381 C   0  0  1  0  0  0  0  0  0  0  0  0
    8.6629   -2.0100   24.4353 C   0  0  1  0  0  0  0  0  0  0  0  0
   10.8464    0.4383   23.1590 C   0  0  1  0  0  0  0  0  0  0  0  0
   10.5145    1.5772   24.1141 C   0  0  0  0  0  0  0  0  0  0  0  0
    9.4887    1.4521   25.0404 C   0  0  0  0  0  0  0  0  0  0  0  0
    9.1268    2.5210   25.8435 C   0  0  0  0  0  0  0  0  0  0  0  0
    9.7877    3.7251   25.7354 C   0  0  0  0  0  0  0  0  0  0  0  0
   10.8185    3.8582   24.8322 C   0  0  0  0  0  0  0  0  0  0  0  0
   11.1844    2.7893   24.0300 C   0  0  0  0  0  0  0  0  0  0  0  0
   12.0545   -0.4186   23.5236 C   0  0  0  0  0  0  0  0  0  0  0  0
   13.0473   -0.6324   22.5824 C   0  0  0  0  0  0  0  0  0  0  0  0
   14.1165   -1.4653   22.8600 C   0  0  0  0  0  0  0  0  0  0  0  0
   14.2238   -2.0704   24.0880 C   0  0  0  0  0  0  0  0  0  0  0  0
   13.2650   -1.8456   25.0442 C   0  0  0  0  0  0  0  0  0  0  0  0
   12.1819   -1.0277   24.7655 C   0  0  0  0  0  0  0  0  0  0  0  0
    8.3360   -1.7244   20.8148 H   0  0  0  0  0  0  0  0  0  0  0  0
    7.1095   -1.0855   21.9611 H   0  0  0  0  0  0  0  0  0  0  0  0
    5.4406    0.8946   22.1532 H   0  0  0  0  0  0  0  0  0  0  0  0
    3.5084    2.3139   21.5185 H   0  0  0  0  0  0  0  0  0  0  0  0
    3.0474    2.8141   19.1574 H   0  0  0  0  0  0  0  0  0  0  0  0
    4.4882    1.8980   17.3706 H   0  0  0  0  0  0  0  0  0  0  0  0
    9.1734   -2.3950   22.4037 H   0  0  0  0  0  0  0  0  0  0  0  0
   10.5724   -2.1348   23.4999 H   0  0  0  0  0  0  0  0  0  0  0  0
    8.6552   -3.0780   24.6986 H   0  0  0  0  0  0  0  0  0  0  0  0
    9.0396   -1.4251   25.2874 H   0  0  0  0  0  0  0  0  0  0  0  0
    7.6407   -1.6852   24.1910 H   0  0  0  0  0  0  0  0  0  0  0  0
   11.1450    0.9439   22.2288 H   0  0  0  0  0  0  0  0  0  0  0  0
    8.9670    0.5112   25.1360 H   0  0  0  0  0  0  0  0  0  0  0  0
    8.3237    2.4102   26.5570 H   0  0  0  0  0  0  0  0  0  0  0  0
    9.4987    4.5603   26.3561 H   0  0  0  0  0  0  0  0  0  0  0  0
   11.3433    4.7985   24.7488 H   0  0  0  0  0  0  0  0  0  0  0  0
   12.0003    2.9009   23.3314 H   0  0  0  0  0  0  0  0  0  0  0  0
   12.9864   -0.1438   21.6212 H   0  0  0  0  0  0  0  0  0  0  0  0
   14.8706   -1.6406   22.1070 H   0  0  0  0  0  0  0  0  0  0  0  0
   15.0594   -2.7208   24.3006 H   0  0  0  0  0  0  0  0  0  0  0  0
   13.3552   -2.3074   26.0164 H   0  0  0  0  0  0  0  0  0  0  0  0
   11.4289   -0.8620   25.5217 H   0  0  0  0  0  0  0  0  0  0  0  0
  1  2  2  0
  2  3  1  0
  2 13  1  0
  3  4  1  0
  3 29  1  6
  3 30  1  0
  4  5  1  0
  4 12  1  0
  5  6  2  0
  5 10  1  0
  6  7  1  0
  6 31  1  0
  7  8  2  0
  7 32  1  0
  8  9  1  0
  8 33  1  0
  9 10  2  0
  9 34  1  0
 10 11  1  0
 11 12  2  0
 13 14  1  0
 13 16  1  0
 14 15  1  0
 14 35  1  6
 14 36  1  0
 15 37  1  1
 15 38  1  0
 15 39  1  0
 16 17  1  0
 16 23  1  0
 16 40  1  6
 17 18  2  0
 17 22  1  0
 18 19  1  0
 18 41  1  0
 19 20  2  0
 19 42  1  0
 20 21  1  0
 20 43  1  0
 21 22  2  0
 21 44  1  0
 22 45  1  0
 23 24  2  0
 23 28  1  0
 24 25  1  0
 24 46  1  0
 25 26  2  0
 25 47  1  0
 26 27  1  0
 26 48  1  0
 27 28  2  0
 27 49  1  0
 28 50  1  0
M  END
$$$$
