LIG(A-306)
     RDKit          3D

 42 45  0  0  0  0  0  0  0  0999 V2000
   -5.9726   -3.1368  -20.8963 O   0  0  0  0  0  0  0  0  0  0  0  0
   -6.5384   -2.0623  -20.8779 C   0  0  0  0  0  0  0  0  0  0  0  0
   -6.1455   -1.0275  -19.8660 C   0  0  0  0  0  0  0  0  0  0  0  0
   -5.2806    0.0511  -20.2029 C   0  0  0  0  0  0  0  0  0  0  0  0
   -4.6815    0.2283  -21.4796 C   0  0  0  0  0  0  0  0  0  0  0  0
   -3.8308    1.2693  -21.7190 C   0  0  0  0  0  0  0  0  0  0  0  0
   -3.5324    2.1846  -20.7190 C   0  0  0  0  0  0  0  0  0  0  0  0
   -4.0909    2.0648  -19.4757 C   0  0  0  0  0  0  0  0  0  0  0  0
   -4.9779    0.9981  -19.1829 C   0  0  0  0  0  0  0  0  0  0  0  0
   -5.5551    0.7947  -17.9037 C   0  0  0  0  0  0  0  0  0  0  0  0
   -6.3637   -0.2149  -17.5969 N   0  0  0  0  0  0  0  0  0  0  0  0
   -6.6487   -1.0939  -18.5692 C   0  0  0  0  0  0  0  0  0  0  0  0
   -7.5158   -1.7463  -21.7504 N   0  0  0  0  0  0  0  0  0  0  0  0
   -8.1174   -2.6947  -22.6975 C   0  0  1  0  0  0  0  0  0  0  0  0
   -9.6297   -2.7393  -22.5047 C   0  0  1  0  0  0  0  0  0  0  0  0
   -8.0603   -0.3975  -21.8547 C   0  0  1  0  0  0  0  0  0  0  0  0
   -9.5608   -0.3334  -21.8226 C   0  0  0  0  0  0  0  0  0  0  0  0
  -10.1138    0.6494  -21.3353 O   0  0  0  0  0  0  0  0  0  0  0  0
  -10.2322   -1.4032  -22.3336 N   0  0  0  0  0  0  0  0  0  0  0  0
  -11.6117   -1.3144  -22.6774 C   0  0  0  0  0  0  0  0  0  0  0  0
  -12.5215   -2.1212  -22.0039 C   0  0  0  0  0  0  0  0  0  0  0  0
  -13.8693   -1.9067  -22.1929 C   0  0  0  0  0  0  0  0  0  0  0  0
  -14.9932   -2.6925  -21.1274 Cl  0  0  0  0  0  0  0  0  0  0  0  0
  -12.0635   -0.3623  -23.5936 C   0  0  0  0  0  0  0  0  0  0  0  0
  -13.4259   -0.2061  -23.8067 C   0  0  0  0  0  0  0  0  0  0  0  0
  -14.3403   -0.9760  -23.1012 C   0  0  0  0  0  0  0  0  0  0  0  0
   -4.9025   -0.4710  -22.2724 H   0  0  0  0  0  0  0  0  0  0  0  0
   -3.3855    1.3817  -22.6965 H   0  0  0  0  0  0  0  0  0  0  0  0
   -2.8531    2.9988  -20.9243 H   0  0  0  0  0  0  0  0  0  0  0  0
   -3.8539    2.7891  -18.7105 H   0  0  0  0  0  0  0  0  0  0  0  0
   -5.3223    1.5077  -17.1268 H   0  0  0  0  0  0  0  0  0  0  0  0
   -7.3147   -1.9097  -18.3297 H   0  0  0  0  0  0  0  0  0  0  0  0
   -7.8909   -2.3754  -23.7255 H   0  0  0  0  0  0  0  0  0  0  0  0
   -7.6988   -3.6970  -22.5241 H   0  0  0  0  0  0  0  0  0  0  0  0
  -10.0810   -3.2161  -23.3873 H   0  0  0  0  0  0  0  0  0  0  0  0
   -9.8509   -3.3400  -21.6102 H   0  0  0  0  0  0  0  0  0  0  0  0
   -7.6719    0.1970  -21.0146 H   0  0  0  0  0  0  0  0  0  0  0  0
   -7.7169    0.0405  -22.8034 H   0  0  0  0  0  0  0  0  0  0  0  0
  -12.1776   -2.9033  -21.3432 H   0  0  0  0  0  0  0  0  0  0  0  0
  -11.3562    0.2494  -24.1338 H   0  0  0  0  0  0  0  0  0  0  0  0
  -13.7769    0.5191  -24.5259 H   0  0  0  0  0  0  0  0  0  0  0  0
  -15.4013   -0.8504  -23.2588 H   0  0  0  0  0  0  0  0  0  0  0  0
  1  2  2  0
  2  3  1  0
  2 13  1  0
  3  4  2  0
  3 12  1  0
  4  5  1  0
  4  9  1  0
  5  6  2  0
  5 27  1  0
  6  7  1  0
  6 28  1  0
  7  8  2  0
  7 29  1  0
  8  9  1  0
  8 30  1  0
  9 10  2  0
 10 11  1  0
 10 31  1  0
 11 12  2  0
 12 32  1  0
 13 14  1  0
 13 16  1  0
 14 15  1  0
 14 33  1  6
 14 34  1  0
 15 19  1  0
 15 35  1  6
 15 36  1  0
 16 17  1  0
 16 37  1  1
 16 38  1  0
 17 18  2  0
 17 19  1  0
 19 20  1  0
 20 21  2  0
 20 24  1  0
 21 22  1  0
 21 39  1  0
 22 23  1  0
 22 26  2  0
 24 25  2  0
 24 40  1  0
 25 26  1  0
 25 41  1  0
 26 42  1  0
M  END
$$$$
