LIG(A-306)
     RDKit          3D

 57 60  0  0  1  0  0  0  0  0999 V2000
   14.0992   -1.5402   21.3258 Cl  0  0  0  0  0  0  0  0  0  0  0  0
   12.9292   -0.7464   22.3448 C   0  0  0  0  0  0  0  0  0  0  0  0
   11.6102   -1.1575   22.2978 C   0  0  0  0  0  0  0  0  0  0  0  0
   13.3291    0.3026   23.1399 C   0  0  0  0  0  0  0  0  0  0  0  0
   12.3881    0.9515   23.9180 C   0  0  0  0  0  0  0  0  0  0  0  0
   11.0441    0.5824   23.8810 C   0  0  0  0  0  0  0  0  0  0  0  0
   10.0411    1.3353   24.7300 C   0  0  1  0  0  0  0  0  0  0  0  0
    8.6551    1.1082   24.2920 N   0  0  2  0  0  0  0  0  0  0  0  0
    7.6541    1.7931   25.1031 C   0  0  1  0  0  0  0  0  0  0  0  0
    7.1510    3.0951   24.4972 C   0  0  0  0  0  0  0  0  0  0  0  0
    6.3899    3.8200   25.1312 O   0  0  0  0  0  0  0  0  0  0  0  0
    7.5559    3.3922   23.2672 N   0  0  0  0  0  0  0  0  0  0  0  0
    7.0328    4.5282   22.5313 C   0  0  1  0  0  0  0  0  0  0  0  0
   10.6492   -0.4746   23.0449 C   0  0  0  0  0  0  0  0  0  0  0  0
    9.1742   -0.7997   22.8849 C   0  0  1  0  0  0  0  0  0  0  0  0
    8.3952   -0.3188   24.1069 C   0  0  1  0  0  0  0  0  0  0  0  0
    8.6621   -0.0596   21.6450 C   0  0  0  0  0  0  0  0  0  0  0  0
    9.1691    0.9924   21.2570 O   0  0  0  0  0  0  0  0  0  0  0  0
    7.5642   -0.6117   21.0689 N   0  0  0  0  0  0  0  0  0  0  0  0
    6.8291   -0.1336   19.9540 C   0  0  0  0  0  0  0  0  0  0  0  0
    5.6871    0.6933   20.1930 C   0  0  0  0  0  0  0  0  0  0  0  0
    5.0050    1.2433   19.0671 C   0  0  0  0  0  0  0  0  0  0  0  0
    5.4980    0.9244   17.7791 C   0  0  0  0  0  0  0  0  0  0  0  0
    6.5531    0.1505   17.5560 N   0  0  0  0  0  0  0  0  0  0  0  0
    7.1861   -0.3575   18.6230 C   0  0  0  0  0  0  0  0  0  0  0  0
    5.2231    1.0312   21.4881 C   0  0  0  0  0  0  0  0  0  0  0  0
    4.1590    1.8631   21.6631 C   0  0  0  0  0  0  0  0  0  0  0  0
    3.4980    2.3861   20.5592 C   0  0  0  0  0  0  0  0  0  0  0  0
    3.8980    2.0972   19.2832 C   0  0  0  0  0  0  0  0  0  0  0  0
    2.0989    3.4390   20.8053 S   0  0  2  0  0  0  0  0  0  0  0  0
    1.2289    2.8099   21.7583 O   0  0  0  0  0  0  0  0  0  0  0  0
    1.5608    3.7850   19.5203 O   0  0  0  0  0  0  0  0  0  0  0  0
    2.7708    4.8870   21.5324 C   0  0  1  0  0  0  0  0  0  0  0  0
   11.3253   -2.0014   21.6871 H   0  0  0  0  0  0  0  0  0  0  0  0
   14.3629    0.6148   23.1561 H   0  0  0  0  0  0  0  0  0  0  0  0
   12.6995    1.7579   24.5653 H   0  0  0  0  0  0  0  0  0  0  0  0
   10.1410    1.0025   25.7737 H   0  0  0  0  0  0  0  0  0  0  0  0
   10.2604    2.4113   24.6656 H   0  0  0  0  0  0  0  0  0  0  0  0
    8.5908    1.5154   23.3810 H   0  0  0  0  0  0  0  0  0  0  0  0
    6.7953    1.1184   25.2349 H   0  0  0  0  0  0  0  0  0  0  0  0
    8.0983    2.0171   26.0842 H   0  0  0  0  0  0  0  0  0  0  0  0
    8.2456    2.8125   22.8333 H   0  0  0  0  0  0  0  0  0  0  0  0
    7.5110    4.5764   21.5418 H   0  0  0  0  0  0  0  0  0  0  0  0
    5.9455    4.4158   22.4079 H   0  0  0  0  0  0  0  0  0  0  0  0
    7.2451    5.4538   23.0864 H   0  0  0  0  0  0  0  0  0  0  0  0
    9.0386   -1.8837   22.7561 H   0  0  0  0  0  0  0  0  0  0  0  0
    8.7232   -0.8741   24.9980 H   0  0  0  0  0  0  0  0  0  0  0  0
    7.3190   -0.4823   23.9486 H   0  0  0  0  0  0  0  0  0  0  0  0
    7.2325   -1.4601   21.4815 H   0  0  0  0  0  0  0  0  0  0  0  0
    4.9833    1.3369   16.9239 H   0  0  0  0  0  0  0  0  0  0  0  0
    8.0410   -0.9909   18.4380 H   0  0  0  0  0  0  0  0  0  0  0  0
    5.7227    0.6211   22.3533 H   0  0  0  0  0  0  0  0  0  0  0  0
    3.8293    2.1160   22.6601 H   0  0  0  0  0  0  0  0  0  0  0  0
    3.3693    2.5205   18.4419 H   0  0  0  0  0  0  0  0  0  0  0  0
    1.9641    5.6097   21.7243 H   0  0  0  0  0  0  0  0  0  0  0  0
    3.2628    4.6264   22.4810 H   0  0  0  0  0  0  0  0  0  0  0  0
    3.5073    5.3330   20.8478 H   0  0  0  0  0  0  0  0  0  0  0  0
  1  2  1  0
  2  3  2  0
  2  4  1  0
  3 14  1  0
  3 34  1  0
  4  5  2  0
  4 35  1  0
  5  6  1  0
  5 36  1  0
  6  7  1  0
  6 14  2  0
  7  8  1  0
  7 37  1  1
  7 38  1  0
  8  9  1  0
  8 16  1  0
  8 39  1  6
  9 10  1  0
  9 40  1  1
  9 41  1  0
 10 11  2  0
 10 12  1  0
 12 13  1  0
 12 42  1  0
 13 43  1  6
 13 44  1  0
 13 45  1  0
 14 15  1  0
 15 16  1  0
 15 17  1  0
 15 46  1  6
 16 47  1  1
 16 48  1  0
 17 18  2  0
 17 19  1  0
 19 20  1  0
 19 49  1  0
 20 21  2  0
 20 25  1  0
 21 22  1  0
 21 26  1  0
 22 23  2  0
 22 29  1  0
 23 24  1  0
 23 50  1  0
 24 25  2  0
 25 51  1  0
 26 27  2  0
 26 52  1  0
 27 28  1  0
 27 53  1  0
 28 29  2  0
 30 28  1  6
 29 54  1  0
 30 31  2  0
 30 32  2  0
 30 33  1  0
 33 55  1  1
 33 56  1  0
 33 57  1  0
M  CHG  1   8   1
M  END
$$$$
