LIG(A-306)
     RDKit          3D

 57 61  0  0  1  0  0  0  0  0999 V2000
   14.0712   -1.5478   21.4158 Cl  0  0  0  0  0  0  0  0  0  0  0  0
   12.8762   -0.7135   22.3715 C   0  0  0  0  0  0  0  0  0  0  0  0
   11.5559   -1.1212   22.3106 C   0  0  0  0  0  0  0  0  0  0  0  0
   13.2741    0.3249   23.1795 C   0  0  0  0  0  0  0  0  0  0  0  0
   12.3389    0.9365   23.9919 C   0  0  0  0  0  0  0  0  0  0  0  0
   11.0036    0.5422   23.9785 C   0  0  0  0  0  0  0  0  0  0  0  0
   10.0594    1.1814   24.9673 C   0  0  1  0  0  0  0  0  0  0  0  0
    8.6717    0.9975   24.5306 N   0  0  0  0  0  0  0  0  0  0  0  0
    7.6089    2.2128   24.7492 S   0  0  2  0  0  0  0  0  0  0  0  0
    8.2119    3.1464   25.6478 O   0  0  0  0  0  0  0  0  0  0  0  0
    6.3571    1.6182   25.1013 O   0  0  0  0  0  0  0  0  0  0  0  0
    7.4448    3.0068   23.1605 C   0  0  1  0  0  0  0  0  0  0  0  0
    6.8034    4.4056   23.1618 C   0  0  2  0  0  0  0  0  0  0  0  0
    5.3873    4.5853   23.5911 C   0  0  1  0  0  0  0  0  0  0  0  0
    5.7814    4.7841   22.1457 C   0  0  2  0  0  0  0  0  0  0  0  0
    7.7032    5.4196   23.6508 O   0  0  0  0  0  0  0  0  0  0  0  0
    8.2585    6.3765   22.7358 C   0  0  1  0  0  0  0  0  0  0  0  0
   10.5964   -0.4723   23.0949 C   0  0  0  0  0  0  0  0  0  0  0  0
    9.1179   -0.7858   22.9111 C   0  0  1  0  0  0  0  0  0  0  0  0
    8.3150   -0.3829   24.1517 C   0  0  2  0  0  0  0  0  0  0  0  0
    8.5656   -0.0564   21.6816 C   0  0  0  0  0  0  0  0  0  0  0  0
    9.1029    0.9531   21.2264 O   0  0  0  0  0  0  0  0  0  0  0  0
    7.4270   -0.5902   21.1624 N   0  0  0  0  0  0  0  0  0  0  0  0
    6.6760   -0.1194   20.0553 C   0  0  0  0  0  0  0  0  0  0  0  0
    5.5032    0.6738   20.2939 C   0  0  0  0  0  0  0  0  0  0  0  0
    4.9595    0.9143   21.5840 C   0  0  0  0  0  0  0  0  0  0  0  0
    3.8669    1.7195   21.7492 C   0  0  0  0  0  0  0  0  0  0  0  0
    3.2598    2.3263   20.6528 C   0  0  0  0  0  0  0  0  0  0  0  0
    3.7320    2.1102   19.3904 C   0  0  0  0  0  0  0  0  0  0  0  0
    4.8585    1.2753   19.1732 C   0  0  0  0  0  0  0  0  0  0  0  0
    5.3958    1.0206   17.8864 C   0  0  0  0  0  0  0  0  0  0  0  0
    6.4646    0.2660   17.6608 N   0  0  0  0  0  0  0  0  0  0  0  0
    7.0762   -0.2772   18.7259 C   0  0  0  0  0  0  0  0  0  0  0  0
   11.2677   -1.9351   21.6619 H   0  0  0  0  0  0  0  0  0  0  0  0
   14.3017    0.6575   23.1792 H   0  0  0  0  0  0  0  0  0  0  0  0
   12.6493    1.7351   24.6494 H   0  0  0  0  0  0  0  0  0  0  0  0
   10.1951    0.7145   25.9540 H   0  0  0  0  0  0  0  0  0  0  0  0
   10.2792    2.2568   25.0372 H   0  0  0  0  0  0  0  0  0  0  0  0
    8.4513    3.0999   22.7265 H   0  0  0  0  0  0  0  0  0  0  0  0
    6.8290    2.3560   22.5224 H   0  0  0  0  0  0  0  0  0  0  0  0
    4.7848    3.7126   23.8832 H   0  0  0  0  0  0  0  0  0  0  0  0
    5.1041    5.4499   24.2093 H   0  0  0  0  0  0  0  0  0  0  0  0
    5.4663    4.0564   21.3834 H   0  0  0  0  0  0  0  0  0  0  0  0
    5.7855    5.7938   21.7094 H   0  0  0  0  0  0  0  0  0  0  0  0
    8.9172    7.0676   23.2823 H   0  0  0  0  0  0  0  0  0  0  0  0
    8.8388    5.8509   21.9632 H   0  0  0  0  0  0  0  0  0  0  0  0
    7.4449    6.9443   22.2607 H   0  0  0  0  0  0  0  0  0  0  0  0
    9.0038   -1.8688   22.7564 H   0  0  0  0  0  0  0  0  0  0  0  0
    7.2394   -0.4371   23.9279 H   0  0  0  0  0  0  0  0  0  0  0  0
    8.5518   -1.0654   24.9812 H   0  0  0  0  0  0  0  0  0  0  0  0
    7.0786   -1.4113   21.6146 H   0  0  0  0  0  0  0  0  0  0  0  0
    5.4161    0.4540   22.4477 H   0  0  0  0  0  0  0  0  0  0  0  0
    3.4709    1.8867   22.7400 H   0  0  0  0  0  0  0  0  0  0  0  0
    2.4081    2.9733   20.8024 H   0  0  0  0  0  0  0  0  0  0  0  0
    3.2436    2.5792   18.5490 H   0  0  0  0  0  0  0  0  0  0  0  0
    4.9045    1.4688   17.0355 H   0  0  0  0  0  0  0  0  0  0  0  0
    7.9487   -0.8858   18.5396 H   0  0  0  0  0  0  0  0  0  0  0  0
  1  2  1  0
  2  3  2  0
  2  4  1  0
  3 18  1  0
  3 34  1  0
  4  5  2  0
  4 35  1  0
  5  6  1  0
  5 36  1  0
  6  7  1  0
  6 18  2  0
  7  8  1  0
  7 37  1  1
  7 38  1  0
  9  8  1  6
  8 20  1  0
  9 10  2  0
  9 11  2  0
  9 12  1  0
 12 13  1  0
 12 39  1  6
 12 40  1  0
 13 14  1  0
 13 15  1  0
 13 16  1  1
 14 15  1  0
 14 41  1  6
 14 42  1  0
 15 43  1  6
 15 44  1  0
 16 17  1  0
 17 45  1  1
 17 46  1  0
 17 47  1  0
 18 19  1  0
 19 20  1  0
 19 21  1  0
 19 48  1  6
 20 49  1  6
 20 50  1  0
 21 22  2  0
 21 23  1  0
 23 24  1  0
 23 51  1  0
 24 25  2  0
 24 33  1  0
 25 26  1  0
 25 30  1  0
 26 27  2  0
 26 52  1  0
 27 28  1  0
 27 53  1  0
 28 29  2  0
 28 54  1  0
 29 30  1  0
 29 55  1  0
 30 31  2  0
 31 32  1  0
 31 56  1  0
 32 33  2  0
 33 57  1  0
M  END
$$$$
