LIG(A-305)
     RDKit          3D

 31 33  0  0  0  0  0  0  0  0999 V2000
    8.6817    0.7489   21.2935 O   0  0  0  0  0  0  0  0  0  0  0  0
    8.3157   -0.4041   21.4946 C   0  0  0  0  0  0  0  0  0  0  0  0
    8.8539   -1.2150   22.6566 C   0  0  1  0  0  0  0  0  0  0  0  0
   10.2689   -0.8130   23.0004 C   0  0  0  0  0  0  0  0  0  0  0  0
   10.5311    0.0671   24.0422 C   0  0  0  0  0  0  0  0  0  0  0  0
   11.8242    0.4801   24.3100 C   0  0  0  0  0  0  0  0  0  0  0  0
   12.8820    0.0090   23.5438 C   0  0  0  0  0  0  0  0  0  0  0  0
   11.3308   -1.3031   22.2482 C   0  0  0  0  0  0  0  0  0  0  0  0
   12.6169   -0.9011   22.5410 C   0  0  0  0  0  0  0  0  0  0  0  0
   13.9407   -1.6312   21.6809 Cl  0  0  0  0  0  0  0  0  0  0  0  0
    7.4266   -1.0502   20.7179 N   0  0  0  0  0  0  0  0  0  0  0  0
    6.7894   -0.4543   19.6449 N   0  0  0  0  0  0  0  0  0  0  0  0
    5.6714    0.2487   19.7380 C   0  0  0  0  0  0  0  0  0  0  0  0
    5.5302    0.7716   18.4550 C   0  0  0  0  0  0  0  0  0  0  0  0
    6.5731    0.3195   17.6718 N   0  0  0  0  0  0  0  0  0  0  0  0
    7.3312   -0.4444   18.3968 N   0  0  0  0  0  0  0  0  0  0  0  0
    4.7596    0.5278   20.7461 C   0  0  0  0  0  0  0  0  0  0  0  0
    3.7006    1.3718   20.4502 C   0  0  0  0  0  0  0  0  0  0  0  0
    3.5474    1.9047   19.1712 C   0  0  0  0  0  0  0  0  0  0  0  0
    4.4582    1.6086   18.1610 C   0  0  0  0  0  0  0  0  0  0  0  0
    8.2120   -1.0516   23.5348 H   0  0  0  0  0  0  0  0  0  0  0  0
    8.8404   -2.2810   22.3859 H   0  0  0  0  0  0  0  0  0  0  0  0
    9.7168    0.4331   24.6500 H   0  0  0  0  0  0  0  0  0  0  0  0
   12.0114    1.1717   25.1181 H   0  0  0  0  0  0  0  0  0  0  0  0
   13.8908    0.3476   23.7288 H   0  0  0  0  0  0  0  0  0  0  0  0
   11.1493   -1.9950   21.4390 H   0  0  0  0  0  0  0  0  0  0  0  0
    7.2170   -2.0055   20.9263 H   0  0  0  0  0  0  0  0  0  0  0  0
    4.8717    0.1004   21.7315 H   0  0  0  0  0  0  0  0  0  0  0  0
    2.9851    1.6197   21.2203 H   0  0  0  0  0  0  0  0  0  0  0  0
    2.7114    2.5555   18.9613 H   0  0  0  0  0  0  0  0  0  0  0  0
    4.3353    2.0199   17.1700 H   0  0  0  0  0  0  0  0  0  0  0  0
  1  2  2  0
  2  3  1  0
  2 11  1  0
  3  4  1  0
  3 21  1  1
  3 22  1  0
  4  5  2  0
  4  8  1  0
  5  6  1  0
  5 23  1  0
  6  7  2  0
  6 24  1  0
  7  9  1  0
  7 25  1  0
  8  9  2  0
  8 26  1  0
  9 10  1  0
 11 12  1  0
 11 27  1  0
 12 13  1  0
 12 16  1  0
 13 14  2  0
 13 17  1  0
 14 15  1  0
 14 20  1  0
 15 16  2  0
 17 18  2  0
 17 28  1  0
 18 19  1  0
 18 29  1  0
 19 20  2  0
 19 30  1  0
 20 31  1  0
M  END
$$$$
