LIG(A-305)
     RDKit          3D

 37 38  0  0  0  0  0  0  0  0999 V2000
    6.1215   -5.3110   24.2751 N   0  0  0  0  0  0  0  0  0  0  0  0
    1.0876   -1.0809   25.8163 C   0  0  1  0  0  0  0  0  0  0  0  0
    6.5236   -4.8190   26.6461 O   0  0  0  0  0  0  0  0  0  0  0  0
    2.1756   -2.1149   25.8103 C   0  0  0  0  0  0  0  0  0  0  0  0
    6.7825   -4.0960   23.7691 C   0  0  1  0  0  0  0  0  0  0  0  0
    6.5544   -4.6380   20.4231 C   0  0  0  0  0  0  0  0  0  0  0  0
    7.2134   -3.3550   19.9931 C   0  0  1  0  0  0  0  0  0  0  0  0
    3.4216   -1.8390   26.3502 C   0  0  0  0  0  0  0  0  0  0  0  0
    4.4336   -2.7810   26.3502 C   0  0  0  0  0  0  0  0  0  0  0  0
    4.1996   -4.0260   25.7872 C   0  0  0  0  0  0  0  0  0  0  0  0
    2.9595   -4.3279   25.2462 C   0  0  0  0  0  0  0  0  0  0  0  0
    1.9646   -3.3689   25.2603 C   0  0  0  0  0  0  0  0  0  0  0  0
    5.3385   -5.9810   23.2262 C   0  0  1  0  0  0  0  0  0  0  0  0
    6.2754   -6.3740   22.1151 C   0  0  1  0  0  0  0  0  0  0  0  0
    7.6985   -4.4680   22.6311 C   0  0  1  0  0  0  0  0  0  0  0  0
    6.9484   -5.1840   21.5951 N   0  0  0  0  0  0  0  0  0  0  0  0
    4.8406   -6.5140   26.0042 O   0  0  0  0  0  0  0  0  0  0  0  0
    5.6784   -5.1370   19.7282 O   0  0  0  0  0  0  0  0  0  0  0  0
    5.4736   -5.2520   25.7792 S   0  0  1  0  0  0  0  0  0  0  0  0
    1.4584   -0.1605   26.2909 H   0  0  0  0  0  0  0  0  0  0  0  0
    0.7833   -0.8630   24.7819 H   0  0  0  0  0  0  0  0  0  0  0  0
    0.2233   -1.4616   26.3803 H   0  0  0  0  0  0  0  0  0  0  0  0
    6.0226   -3.3850   23.4125 H   0  0  0  0  0  0  0  0  0  0  0  0
    7.3683   -3.6323   24.5765 H   0  0  0  0  0  0  0  0  0  0  0  0
    6.7795   -3.0212   19.0390 H   0  0  0  0  0  0  0  0  0  0  0  0
    7.0494   -2.5837   20.7601 H   0  0  0  0  0  0  0  0  0  0  0  0
    8.2932   -3.5222   19.8662 H   0  0  0  0  0  0  0  0  0  0  0  0
    3.6064   -0.8660   26.7808 H   0  0  0  0  0  0  0  0  0  0  0  0
    5.3953   -2.5496   26.7838 H   0  0  0  0  0  0  0  0  0  0  0  0
    2.7730   -5.3019   24.8185 H   0  0  0  0  0  0  0  0  0  0  0  0
    1.0006   -3.6023   24.8328 H   0  0  0  0  0  0  0  0  0  0  0  0
    4.8543   -6.8782   23.6392 H   0  0  0  0  0  0  0  0  0  0  0  0
    4.5705   -5.2948   22.8398 H   0  0  0  0  0  0  0  0  0  0  0  0
    7.0259   -7.0792   22.5017 H   0  0  0  0  0  0  0  0  0  0  0  0
    5.7038   -6.8536   21.3070 H   0  0  0  0  0  0  0  0  0  0  0  0
    8.1329   -3.5540   22.1999 H   0  0  0  0  0  0  0  0  0  0  0  0
    8.5046   -5.1141   23.0090 H   0  0  0  0  0  0  0  0  0  0  0  0
  1  5  1  0
  1 13  1  0
 19  1  1  6
  2  4  1  0
  2 20  1  1
  2 21  1  0
  2 22  1  0
  3 19  2  0
  4  8  2  0
  4 12  1  0
  5 15  1  0
  5 23  1  6
  5 24  1  0
  6  7  1  0
  6 16  1  0
  6 18  2  0
  7 25  1  6
  7 26  1  0
  7 27  1  0
  8  9  1  0
  8 28  1  0
  9 10  2  0
  9 29  1  0
 10 11  1  0
 10 19  1  0
 11 12  2  0
 11 30  1  0
 12 31  1  0
 13 14  1  0
 13 32  1  1
 13 33  1  0
 14 16  1  0
 14 34  1  1
 14 35  1  0
 15 16  1  0
 15 36  1  6
 15 37  1  0
 17 19  2  0
M  END
$$$$
