LIG(A-306)
     RDKit          3D

 44 47  0  0  1  0  0  0  0  0999 V2000
   14.0345   -1.5377   21.4948 Cl  0  0  0  0  0  0  0  0  0  0  0  0
   12.7385   -0.8261   22.4199 C   0  0  0  0  0  0  0  0  0  0  0  0
   11.4405   -1.2244   22.1674 C   0  0  0  0  0  0  0  0  0  0  0  0
   13.0260    0.1472   23.3532 C   0  0  0  0  0  0  0  0  0  0  0  0
   11.9884    0.7283   24.0590 C   0  0  0  0  0  0  0  0  0  0  0  0
   10.6623    0.3580   23.8273 C   0  0  0  0  0  0  0  0  0  0  0  0
    9.5676    0.9787   24.6709 C   0  0  1  0  0  0  0  0  0  0  0  0
    8.2195    0.6462   24.1881 N   0  0  0  0  0  0  0  0  0  0  0  0
    7.0889    1.2660   24.8917 C   0  0  0  0  0  0  0  0  0  0  0  0
    6.0473    0.6054   25.0456 O   0  0  0  0  0  0  0  0  0  0  0  0
    7.2138    2.5225   25.3345 N   0  0  0  0  0  0  0  0  0  0  0  0
   10.3879   -0.6214   22.8571 C   0  0  0  0  0  0  0  0  0  0  0  0
    8.9539   -1.0152   22.5695 C   0  0  1  0  0  0  0  0  0  0  0  0
    8.0889   -0.7601   23.8030 C   0  0  1  0  0  0  0  0  0  0  0  0
    8.4493   -0.1611   21.4041 C   0  0  0  0  0  0  0  0  0  0  0  0
    8.9879    0.9036   21.0881 O   0  0  0  0  0  0  0  0  0  0  0  0
    7.3476   -0.6507   20.7842 N   0  0  0  0  0  0  0  0  0  0  0  0
    6.5986   -0.0435   19.7599 C   0  0  0  0  0  0  0  0  0  0  0  0
    5.4955    0.7908   20.1234 C   0  0  0  0  0  0  0  0  0  0  0  0
    5.0666    0.9954   21.4613 C   0  0  0  0  0  0  0  0  0  0  0  0
    4.0056    1.8103   21.7419 C   0  0  0  0  0  0  0  0  0  0  0  0
    3.3154    2.4537   20.7205 C   0  0  0  0  0  0  0  0  0  0  0  0
    3.6903    2.2881   19.4184 C   0  0  0  0  0  0  0  0  0  0  0  0
    4.7893    1.4580   19.0829 C   0  0  0  0  0  0  0  0  0  0  0  0
    5.2262    1.2514   17.7510 C   0  0  0  0  0  0  0  0  0  0  0  0
    6.2441    0.4731   17.4122 N   0  0  0  0  0  0  0  0  0  0  0  0
    6.9012   -0.1505   18.3995 C   0  0  0  0  0  0  0  0  0  0  0  0
   11.2413   -1.9979   21.4405 H   0  0  0  0  0  0  0  0  0  0  0  0
   14.0469    0.4514   23.5305 H   0  0  0  0  0  0  0  0  0  0  0  0
   12.2075    1.4811   24.8017 H   0  0  0  0  0  0  0  0  0  0  0  0
    9.6708    0.6148   25.7039 H   0  0  0  0  0  0  0  0  0  0  0  0
    9.6875    2.0720   24.6536 H   0  0  0  0  0  0  0  0  0  0  0  0
    6.4520    2.9634   25.8092 H   0  0  0  0  0  0  0  0  0  0  0  0
    8.0689    3.0206   25.1907 H   0  0  0  0  0  0  0  0  0  0  0  0
    8.9058   -2.0796   22.2965 H   0  0  0  0  0  0  0  0  0  0  0  0
    8.4255   -1.4026   24.6299 H   0  0  0  0  0  0  0  0  0  0  0  0
    7.0374   -0.9834   23.5698 H   0  0  0  0  0  0  0  0  0  0  0  0
    7.0305   -1.5481   21.0907 H   0  0  0  0  0  0  0  0  0  0  0  0
    5.5858    0.5003   22.2685 H   0  0  0  0  0  0  0  0  0  0  0  0
    3.7002    1.9560   22.7675 H   0  0  0  0  0  0  0  0  0  0  0  0
    2.4759    3.0896   20.9594 H   0  0  0  0  0  0  0  0  0  0  0  0
    3.1441    2.7945   18.6362 H   0  0  0  0  0  0  0  0  0  0  0  0
    4.6954    1.7612   16.9606 H   0  0  0  0  0  0  0  0  0  0  0  0
    7.7297   -0.7856   18.1224 H   0  0  0  0  0  0  0  0  0  0  0  0
  1  2  1  0
  2  3  2  0
  2  4  1  0
  3 12  1  0
  3 28  1  0
  4  5  2  0
  4 29  1  0
  5  6  1  0
  5 30  1  0
  6  7  1  0
  6 12  2  0
  7  8  1  0
  7 31  1  1
  7 32  1  0
  8  9  1  0
  8 14  1  0
  9 10  2  0
  9 11  1  0
 11 33  1  0
 11 34  1  0
 12 13  1  0
 13 14  1  0
 13 15  1  0
 13 35  1  6
 14 36  1  1
 14 37  1  0
 15 16  2  0
 15 17  1  0
 17 18  1  0
 17 38  1  0
 18 19  2  0
 18 27  1  0
 19 20  1  0
 19 24  1  0
 20 21  2  0
 20 39  1  0
 21 22  1  0
 21 40  1  0
 22 23  2  0
 22 41  1  0
 23 24  1  0
 23 42  1  0
 24 25  2  0
 25 26  1  0
 25 43  1  0
 26 27  2  0
 27 44  1  0
M  END
$$$$
