LIG(A-305)
     RDKit          3D

 42 44  0  0  0  0  0  0  0  0999 V2000
    7.0006    0.7956   24.9131 O   0  0  0  0  0  0  0  0  0  0  0  0
    5.6776    0.8235   25.4591 S   0  0  1  0  0  0  0  0  0  0  0  0
    5.4796    1.2345   26.8152 O   0  0  0  0  0  0  0  0  0  0  0  0
    4.8075    1.8175   24.5342 N   0  0  0  0  0  0  0  0  0  0  0  0
    3.3805    1.9784   24.8232 C   0  0  1  0  0  0  0  0  0  0  0  0
    2.7514    3.0804   24.0053 C   0  0  1  0  0  0  0  0  0  0  0  0
    1.2764    3.2223   24.2923 C   0  0  0  0  0  0  0  0  0  0  0  0
    0.3415    2.4633   23.5983 C   0  0  0  0  0  0  0  0  0  0  0  0
   -1.0125    2.5632   23.8914 C   0  0  0  0  0  0  0  0  0  0  0  0
   -1.4476    3.4291   24.8744 C   0  0  0  0  0  0  0  0  0  0  0  0
   -0.5306    4.1992   25.5634 C   0  0  0  0  0  0  0  0  0  0  0  0
    0.8234    4.0953   25.2743 C   0  0  0  0  0  0  0  0  0  0  0  0
    4.9927   -0.8035   25.2752 C   0  0  0  0  0  0  0  0  0  0  0  0
    4.2928   -1.3195   26.3592 C   0  0  0  0  0  0  0  0  0  0  0  0
    3.6828   -2.5646   26.2662 C   0  0  0  0  0  0  0  0  0  0  0  0
    3.7748   -3.3126   25.1002 C   0  0  0  0  0  0  0  0  0  0  0  0
    4.4948   -2.7975   24.0272 C   0  0  0  0  0  0  0  0  0  0  0  0
    5.1097   -1.5405   24.0841 C   0  0  0  0  0  0  0  0  0  0  0  0
    5.7886   -1.1494   22.9381 N   0  0  0  0  0  0  0  0  0  0  0  0
    4.7958   -3.5245   22.4711 S   0  0  0  0  0  0  0  0  0  0  0  0
    5.6957   -2.0854   22.0351 C   0  0  0  0  0  0  0  0  0  0  0  0
    6.2886   -1.8874   20.8021 N   0  0  0  0  0  0  0  0  0  0  0  0
    6.2656   -2.7724   19.7561 C   0  0  0  0  0  0  0  0  0  0  0  0
    5.6557   -3.8384   19.7641 O   0  0  0  0  0  0  0  0  0  0  0  0
    7.0796   -2.3413   18.5561 C   0  0  1  0  0  0  0  0  0  0  0  0
    5.0714    1.8685   23.5710 H   0  0  0  0  0  0  0  0  0  0  0  0
    2.8652    1.0329   24.5987 H   0  0  0  0  0  0  0  0  0  0  0  0
    3.2603    2.2171   25.8902 H   0  0  0  0  0  0  0  0  0  0  0  0
    3.2530    4.0302   24.2426 H   0  0  0  0  0  0  0  0  0  0  0  0
    2.8856    2.8518   22.9376 H   0  0  0  0  0  0  0  0  0  0  0  0
    0.6715    1.7882   22.8226 H   0  0  0  0  0  0  0  0  0  0  0  0
   -1.7268    1.9617   23.3487 H   0  0  0  0  0  0  0  0  0  0  0  0
   -2.5003    3.5044   25.1039 H   0  0  0  0  0  0  0  0  0  0  0  0
   -0.8676    4.8833   26.3282 H   0  0  0  0  0  0  0  0  0  0  0  0
    1.5332    4.7001   25.8191 H   0  0  0  0  0  0  0  0  0  0  0  0
    4.2227   -0.7520   27.2754 H   0  0  0  0  0  0  0  0  0  0  0  0
    3.1318   -2.9543   27.1093 H   0  0  0  0  0  0  0  0  0  0  0  0
    3.2957   -4.2777   25.0275 H   0  0  0  0  0  0  0  0  0  0  0  0
    6.7756   -1.0254   20.6616 H   0  0  0  0  0  0  0  0  0  0  0  0
    7.0138   -3.1104   17.7724 H   0  0  0  0  0  0  0  0  0  0  0  0
    6.6866   -1.3895   18.1694 H   0  0  0  0  0  0  0  0  0  0  0  0
    8.1304   -2.2104   18.8539 H   0  0  0  0  0  0  0  0  0  0  0  0
  1  2  2  0
  2  3  2  0
  2  4  1  6
  2 13  1  0
  4  5  1  0
  4 26  1  0
  5  6  1  0
  5 27  1  1
  5 28  1  0
  6  7  1  0
  6 29  1  1
  6 30  1  0
  7  8  2  0
  7 12  1  0
  8  9  1  0
  8 31  1  0
  9 10  2  0
  9 32  1  0
 10 11  1  0
 10 33  1  0
 11 12  2  0
 11 34  1  0
 12 35  1  0
 13 14  2  0
 13 18  1  0
 14 15  1  0
 14 36  1  0
 15 16  2  0
 15 37  1  0
 16 17  1  0
 16 38  1  0
 17 18  2  0
 17 20  1  0
 18 19  1  0
 19 21  2  0
 20 21  1  0
 21 22  1  0
 22 23  1  0
 22 39  1  0
 23 24  2  0
 23 25  1  0
 25 40  1  6
 25 41  1  0
 25 42  1  0
M  END
$$$$
