LIG(A-306)
     RDKit          3D

 58 62  0  0  1  0  0  0  0  0999 V2000
   14.1114   -1.5342   21.3468 Cl  0  0  0  0  0  0  0  0  0  0  0  0
   12.9014   -0.8079   22.3658 C   0  0  0  0  0  0  0  0  0  0  0  0
   11.5824   -1.2016   22.2303 C   0  0  0  0  0  0  0  0  0  0  0  0
   13.2749    0.1664   23.2602 C   0  0  0  0  0  0  0  0  0  0  0  0
   12.3073    0.7501   24.0540 C   0  0  0  0  0  0  0  0  0  0  0  0
   10.9642    0.3944   23.9383 C   0  0  0  0  0  0  0  0  0  0  0  0
    9.9773    1.0907   24.8505 C   0  0  1  0  0  0  0  0  0  0  0  0
    8.5823    0.6844   24.6340 N   0  0  0  0  0  0  0  0  0  0  0  0
    7.3081    1.5417   25.0764 S   0  0  2  0  0  0  0  0  0  0  0  0
    7.3254    1.6447   26.4939 O   0  0  0  0  0  0  0  0  0  0  0  0
    6.1726    1.0177   24.3966 O   0  0  0  0  0  0  0  0  0  0  0  0
    7.7110    2.9747   24.4904 N   0  0  0  0  0  0  0  0  0  0  0  0
    7.7940    4.1792   25.3445 C   0  0  1  0  0  0  0  0  0  0  0  0
    7.1657    5.2916   24.5058 C   0  0  1  0  0  0  0  0  0  0  0  0
    7.3906    3.3862   23.1062 C   0  0  1  0  0  0  0  0  0  0  0  0
    6.4528    4.5602   23.3451 C   0  0  2  0  0  0  0  0  0  0  0  0
    6.2332    5.4236   22.1088 C   0  0  1  0  0  0  0  0  0  0  0  0
   10.5957   -0.5811   22.9990 C   0  0  0  0  0  0  0  0  0  0  0  0
    9.1305   -0.9095   22.7931 C   0  0  1  0  0  0  0  0  0  0  0  0
    8.3545   -0.6659   24.0846 C   0  0  1  0  0  0  0  0  0  0  0  0
    8.5540   -0.0865   21.6378 C   0  0  0  0  0  0  0  0  0  0  0  0
    9.0677    0.9689   21.2667 O   0  0  0  0  0  0  0  0  0  0  0  0
    7.4384   -0.6099   21.0680 N   0  0  0  0  0  0  0  0  0  0  0  0
    6.6865   -0.0739   19.9971 C   0  0  0  0  0  0  0  0  0  0  0  0
    5.5615    0.7600   20.2956 C   0  0  0  0  0  0  0  0  0  0  0  0
    5.0715    0.9874   21.6083 C   0  0  0  0  0  0  0  0  0  0  0  0
    3.9767    1.7750   21.8260 C   0  0  0  0  0  0  0  0  0  0  0  0
    3.3246    2.3902   20.7618 C   0  0  0  0  0  0  0  0  0  0  0  0
    3.7594    2.2089   19.4808 C   0  0  0  0  0  0  0  0  0  0  0  0
    4.8774    1.3801   19.2093 C   0  0  0  0  0  0  0  0  0  0  0  0
    5.3385    1.1066   17.8968 C   0  0  0  0  0  0  0  0  0  0  0  0
    6.3734    0.3236   17.6190 N   0  0  0  0  0  0  0  0  0  0  0  0
    7.0203   -0.2378   18.6500 C   0  0  0  0  0  0  0  0  0  0  0  0
   11.3174   -1.9840   21.5345 H   0  0  0  0  0  0  0  0  0  0  0  0
   14.3081    0.4705   23.3409 H   0  0  0  0  0  0  0  0  0  0  0  0
   12.5967    1.4967   24.7786 H   0  0  0  0  0  0  0  0  0  0  0  0
   10.2473    0.8629   25.8922 H   0  0  0  0  0  0  0  0  0  0  0  0
   10.0532    2.1748   24.6808 H   0  0  0  0  0  0  0  0  0  0  0  0
    7.2315    4.0323   26.2783 H   0  0  0  0  0  0  0  0  0  0  0  0
    8.8419    4.4159   25.5810 H   0  0  0  0  0  0  0  0  0  0  0  0
    6.4426    5.8657   25.1037 H   0  0  0  0  0  0  0  0  0  0  0  0
    7.9410    5.9690   24.1183 H   0  0  0  0  0  0  0  0  0  0  0  0
    8.2935    3.6982   22.5610 H   0  0  0  0  0  0  0  0  0  0  0  0
    6.8893    2.5782   22.5533 H   0  0  0  0  0  0  0  0  0  0  0  0
    5.4827    4.1837   23.7018 H   0  0  0  0  0  0  0  0  0  0  0  0
    5.5483    6.2487   22.3541 H   0  0  0  0  0  0  0  0  0  0  0  0
    7.1967    5.8344   21.7729 H   0  0  0  0  0  0  0  0  0  0  0  0
    5.7963    4.8107   21.3066 H   0  0  0  0  0  0  0  0  0  0  0  0
    9.0453   -1.9751   22.5338 H   0  0  0  0  0  0  0  0  0  0  0  0
    8.6708   -1.4087   24.8317 H   0  0  0  0  0  0  0  0  0  0  0  0
    7.2807   -0.7867   23.8792 H   0  0  0  0  0  0  0  0  0  0  0  0
    7.1106   -1.4741   21.4497 H   0  0  0  0  0  0  0  0  0  0  0  0
    5.5725    0.5303   22.4487 H   0  0  0  0  0  0  0  0  0  0  0  0
    3.6141    1.9213   22.8328 H   0  0  0  0  0  0  0  0  0  0  0  0
    2.4660    3.0174   20.9513 H   0  0  0  0  0  0  0  0  0  0  0  0
    3.2476    2.7009   18.6670 H   0  0  0  0  0  0  0  0  0  0  0  0
    4.8144    1.5645   17.0708 H   0  0  0  0  0  0  0  0  0  0  0  0
    7.8676   -0.8673   18.4213 H   0  0  0  0  0  0  0  0  0  0  0  0
  1  2  1  0
  2  3  2  0
  2  4  1  0
  3 18  1  0
  3 34  1  0
  4  5  2  0
  4 35  1  0
  5  6  1  0
  5 36  1  0
  6  7  1  0
  6 18  2  0
  7  8  1  0
  7 37  1  1
  7 38  1  0
  9  8  1  1
  8 20  1  0
  9 10  2  0
  9 11  2  0
  9 12  1  0
 12 13  1  0
 12 15  1  0
 13 14  1  0
 13 39  1  1
 13 40  1  0
 14 16  1  0
 14 41  1  1
 14 42  1  0
 15 16  1  0
 15 43  1  6
 15 44  1  0
 16 17  1  0
 16 45  1  1
 17 46  1  1
 17 47  1  0
 17 48  1  0
 18 19  1  0
 19 20  1  0
 19 21  1  0
 19 49  1  6
 20 50  1  1
 20 51  1  0
 21 22  2  0
 21 23  1  0
 23 24  1  0
 23 52  1  0
 24 25  2  0
 24 33  1  0
 25 26  1  0
 25 30  1  0
 26 27  2  0
 26 53  1  0
 27 28  1  0
 27 54  1  0
 28 29  2  0
 28 55  1  0
 29 30  1  0
 29 56  1  0
 30 31  2  0
 31 32  1  0
 31 57  1  0
 32 33  2  0
 33 58  1  0
M  END
$$$$
