LIG(A-306)
     RDKit          3D

 47 50  0  0  1  0  0  0  0  0999 V2000
    9.4464    1.3525   21.2615 O   0  0  0  0  0  0  0  0  0  0  0  0
    9.1225    0.2763   21.7431 C   0  0  0  0  0  0  0  0  0  0  0  0
    9.9695   -0.3760   22.8645 C   0  0  2  0  0  0  0  0  0  0  0  0
   11.2047    0.4821   23.1619 C   0  0  0  0  0  0  0  0  0  0  0  0
   11.0098    1.7225   23.7677 C   0  0  0  0  0  0  0  0  0  0  0  0
   12.0597    2.6171   23.8485 C   0  0  0  0  0  0  0  0  0  0  0  0
   11.7569    4.2062   24.4877 Cl  0  0  0  0  0  0  0  0  0  0  0  0
   13.3229    2.3069   23.3927 C   0  0  0  0  0  0  0  0  0  0  0  0
   13.5529    1.0623   22.8391 C   0  0  0  0  0  0  0  0  0  0  0  0
   12.5033    0.1629   22.7264 C   0  0  0  0  0  0  0  0  0  0  0  0
   12.8550   -1.3961   22.0115 S   0  0  1  0  0  0  0  0  0  0  0  0
   13.6904   -1.2111   20.8629 O   0  0  0  0  0  0  0  0  0  0  0  0
   13.2884   -2.2989   23.0321 O   0  0  0  0  0  0  0  0  0  0  0  0
   11.3863   -1.8802   21.5033 N   0  0  0  0  0  0  0  0  0  0  0  0
   10.3632   -1.8354   22.5562 C   0  0  1  0  0  0  0  0  0  0  0  0
    9.0340   -0.3510   24.0892 C   0  0  1  0  0  0  0  0  0  0  0  0
    8.0441   -0.4234   21.3169 N   0  0  0  0  0  0  0  0  0  0  0  0
    7.1976   -0.0452   20.2418 C   0  0  0  0  0  0  0  0  0  0  0  0
    6.0279    0.7169   20.4509 C   0  0  0  0  0  0  0  0  0  0  0  0
    5.6315    1.1428   21.8479 C   0  0  1  0  0  0  0  0  0  0  0  0
    4.1735    1.5565   21.9502 C   0  0  1  0  0  0  0  0  0  0  0  0
    3.8107    2.5240   20.8421 C   0  0  1  0  0  0  0  0  0  0  0  0
    3.9877    1.8855   19.4820 C   0  0  1  0  0  0  0  0  0  0  0  0
    5.2741    1.1079   19.3317 C   0  0  0  0  0  0  0  0  0  0  0  0
    5.7318    0.7375   18.0816 C   0  0  0  0  0  0  0  0  0  0  0  0
    6.8357    0.0184   17.8631 N   0  0  0  0  0  0  0  0  0  0  0  0
    7.5444   -0.3688   18.9310 C   0  0  0  0  0  0  0  0  0  0  0  0
   10.0427    1.9829   24.1719 H   0  0  0  0  0  0  0  0  0  0  0  0
   14.1233    3.0281   23.4673 H   0  0  0  0  0  0  0  0  0  0  0  0
   14.5412    0.7923   22.4972 H   0  0  0  0  0  0  0  0  0  0  0  0
   11.1133   -1.6680   20.5650 H   0  0  0  0  0  0  0  0  0  0  0  0
   10.7617   -2.3033   23.4685 H   0  0  0  0  0  0  0  0  0  0  0  0
    9.4730   -2.3873   22.2199 H   0  0  0  0  0  0  0  0  0  0  0  0
    9.5477   -0.7984   24.9529 H   0  0  0  0  0  0  0  0  0  0  0  0
    8.7632    0.6894   24.3224 H   0  0  0  0  0  0  0  0  0  0  0  0
    8.1229   -0.9258   23.8663 H   0  0  0  0  0  0  0  0  0  0  0  0
    7.8270   -1.2732   21.7973 H   0  0  0  0  0  0  0  0  0  0  0  0
    5.8061    0.3009   22.5339 H   0  0  0  0  0  0  0  0  0  0  0  0
    6.2596    1.9952   22.1461 H   0  0  0  0  0  0  0  0  0  0  0  0
    3.5382    0.6620   21.8707 H   0  0  0  0  0  0  0  0  0  0  0  0
    4.0036    2.0416   22.9227 H   0  0  0  0  0  0  0  0  0  0  0  0
    2.7607    2.8296   20.9615 H   0  0  0  0  0  0  0  0  0  0  0  0
    4.4603    3.4090   20.9108 H   0  0  0  0  0  0  0  0  0  0  0  0
    3.1460    1.1986   19.3101 H   0  0  0  0  0  0  0  0  0  0  0  0
    3.9732    2.6806   18.7220 H   0  0  0  0  0  0  0  0  0  0  0  0
    5.1575    1.0512   17.2224 H   0  0  0  0  0  0  0  0  0  0  0  0
    8.4314   -0.9631   18.7683 H   0  0  0  0  0  0  0  0  0  0  0  0
  1  2  2  0
  3  2  1  6
  2 17  1  0
  3  4  1  0
  3 15  1  0
  3 16  1  0
  4  5  2  0
  4 10  1  0
  5  6  1  0
  5 28  1  0
  6  7  1  0
  6  8  2  0
  8  9  1  0
  8 29  1  0
  9 10  2  0
  9 30  1  0
 10 11  1  0
 11 12  2  0
 11 13  2  0
 11 14  1  6
 14 15  1  0
 14 31  1  0
 15 32  1  1
 15 33  1  0
 16 34  1  1
 16 35  1  0
 16 36  1  0
 17 18  1  0
 17 37  1  0
 18 19  2  0
 18 27  1  0
 19 20  1  0
 19 24  1  0
 20 21  1  0
 20 38  1  1
 20 39  1  0
 21 22  1  0
 21 40  1  1
 21 41  1  0
 22 23  1  0
 22 42  1  1
 22 43  1  0
 23 24  1  0
 23 44  1  6
 23 45  1  0
 24 25  2  0
 25 26  1  0
 25 46  1  0
 26 27  2  0
 27 47  1  0
M  END
$$$$
