LIG(A-306)
     RDKit          3D

 55 59  0  0  1  0  0  0  0  0999 V2000
    9.5298    1.4162   21.3870 O   0  0  0  0  0  0  0  0  0  0  0  0
    9.0864    0.3811   21.8488 C   0  0  0  0  0  0  0  0  0  0  0  0
    8.0124   -0.3054   21.3671 N   0  0  0  0  0  0  0  0  0  0  0  0
    7.1689    0.1228   20.2889 C   0  0  0  0  0  0  0  0  0  0  0  0
    5.9920    0.9023   20.4864 C   0  0  0  0  0  0  0  0  0  0  0  0
    5.4802    1.2615   21.7611 C   0  0  0  0  0  0  0  0  0  0  0  0
    4.3416    2.0099   21.8763 C   0  0  0  0  0  0  0  0  0  0  0  0
    3.6693    2.4576   20.7435 C   0  0  0  0  0  0  0  0  0  0  0  0
    4.1174    2.1371   19.4950 C   0  0  0  0  0  0  0  0  0  0  0  0
    5.2809    1.3437   19.3298 C   0  0  0  0  0  0  0  0  0  0  0  0
    5.7818    0.9611   18.0596 C   0  0  0  0  0  0  0  0  0  0  0  0
    6.8716    0.2251   17.8812 N   0  0  0  0  0  0  0  0  0  0  0  0
    7.5326   -0.1708   18.9768 C   0  0  0  0  0  0  0  0  0  0  0  0
    7.8232   -1.6009   22.0396 C   0  0  1  0  0  0  0  0  0  0  0  0
    9.1517   -1.8259   22.7592 C   0  0  1  0  0  0  0  0  0  0  0  0
    9.6471   -0.3886   23.0507 C   0  0  1  0  0  0  0  0  0  0  0  0
   11.1806   -0.2506   23.0990 C   0  0  0  0  0  0  0  0  0  0  0  0
   11.9949   -1.0241   22.2694 C   0  0  0  0  0  0  0  0  0  0  0  0
   13.3429   -0.7282   22.1783 C   0  0  0  0  0  0  0  0  0  0  0  0
   14.3160   -1.5702   21.0030 Cl  0  0  0  0  0  0  0  0  0  0  0  0
   13.9178    0.2693   22.9335 C   0  0  0  0  0  0  0  0  0  0  0  0
   13.1248    0.9925   23.8033 C   0  0  0  0  0  0  0  0  0  0  0  0
   11.7564    0.7499   23.8992 C   0  0  0  0  0  0  0  0  0  0  0  0
   10.9314    1.5651   24.8690 C   0  0  1  0  0  0  0  0  0  0  0  0
    9.0010    0.2417   24.3135 C   0  0  1  0  0  0  0  0  0  0  0  0
    9.5078    1.6012   24.5007 N   0  0  1  0  0  0  0  0  0  0  0  0
    8.7433    2.4714   25.3902 C   0  0  1  0  0  0  0  0  0  0  0  0
    7.7955    3.4267   24.6846 C   0  0  0  0  0  0  0  0  0  0  0  0
    6.7992    3.8522   25.2639 O   0  0  0  0  0  0  0  0  0  0  0  0
    8.0842    3.7567   23.4290 N   0  0  0  0  0  0  0  0  0  0  0  0
    7.1793    4.5352   22.6042 C   0  0  1  0  0  0  0  0  0  0  0  0
    5.9976    0.9390   22.6525 H   0  0  0  0  0  0  0  0  0  0  0  0
    3.9605    2.2559   22.8564 H   0  0  0  0  0  0  0  0  0  0  0  0
    2.7833    3.0653   20.8534 H   0  0  0  0  0  0  0  0  0  0  0  0
    3.5818    2.4904   18.6263 H   0  0  0  0  0  0  0  0  0  0  0  0
    5.2429    1.2889   17.1830 H   0  0  0  0  0  0  0  0  0  0  0  0
    8.4211   -0.7672   18.8308 H   0  0  0  0  0  0  0  0  0  0  0  0
    6.9906   -1.5538   22.7569 H   0  0  0  0  0  0  0  0  0  0  0  0
    7.6321   -2.3997   21.3079 H   0  0  0  0  0  0  0  0  0  0  0  0
    9.0037   -2.3886   23.6927 H   0  0  0  0  0  0  0  0  0  0  0  0
    9.8623   -2.3645   22.1151 H   0  0  0  0  0  0  0  0  0  0  0  0
   11.5767   -1.8444   21.7049 H   0  0  0  0  0  0  0  0  0  0  0  0
   14.9728    0.4831   22.8472 H   0  0  0  0  0  0  0  0  0  0  0  0
   13.5729    1.7584   24.4188 H   0  0  0  0  0  0  0  0  0  0  0  0
   11.0258    1.1230   25.8718 H   0  0  0  0  0  0  0  0  0  0  0  0
   11.3187    2.5945   24.8841 H   0  0  0  0  0  0  0  0  0  0  0  0
    7.9085    0.2729   24.1884 H   0  0  0  0  0  0  0  0  0  0  0  0
    9.2519   -0.3666   25.1950 H   0  0  0  0  0  0  0  0  0  0  0  0
    9.4717    2.0324   23.5992 H   0  0  0  0  0  0  0  0  0  0  0  0
    8.1501    1.8360   26.0643 H   0  0  0  0  0  0  0  0  0  0  0  0
    9.4545    3.0681   25.9802 H   0  0  0  0  0  0  0  0  0  0  0  0
    8.9556    3.4579   23.0397 H   0  0  0  0  0  0  0  0  0  0  0  0
    7.6255    4.6848   21.6100 H   0  0  0  0  0  0  0  0  0  0  0  0
    6.2246    3.9986   22.5004 H   0  0  0  0  0  0  0  0  0  0  0  0
    7.0013    5.5123   23.0769 H   0  0  0  0  0  0  0  0  0  0  0  0
  1  2  2  0
  2  3  1  0
 16  2  1  6
  3  4  1  0
  3 14  1  0
  4  5  2  0
  4 13  1  0
  5  6  1  0
  5 10  1  0
  6  7  2  0
  6 32  1  0
  7  8  1  0
  7 33  1  0
  8  9  2  0
  8 34  1  0
  9 10  1  0
  9 35  1  0
 10 11  2  0
 11 12  1  0
 11 36  1  0
 12 13  2  0
 13 37  1  0
 14 15  1  0
 14 38  1  1
 14 39  1  0
 15 16  1  0
 15 40  1  1
 15 41  1  0
 16 17  1  0
 16 25  1  0
 17 18  2  0
 17 23  1  0
 18 19  1  0
 18 42  1  0
 19 20  1  0
 19 21  2  0
 21 22  1  0
 21 43  1  0
 22 23  2  0
 22 44  1  0
 23 24  1  0
 24 26  1  0
 24 45  1  1
 24 46  1  0
 25 26  1  0
 25 47  1  6
 25 48  1  0
 26 27  1  0
 26 49  1  6
 27 28  1  0
 27 50  1  1
 27 51  1  0
 28 29  2  0
 28 30  1  0
 30 31  1  0
 30 52  1  0
 31 53  1  6
 31 54  1  0
 31 55  1  0
M  CHG  1  26   1
M  END
$$$$
