LIG(A-305)
     RDKit          3D

 29 30  0  0  0  0  0  0  0  0999 V2000
   14.3482   -1.4995   21.5189 Cl  0  0  0  0  0  0  0  0  0  0  0  0
   13.0193   -0.7014   22.2999 C   0  0  0  0  0  0  0  0  0  0  0  0
   13.2704    0.3906   23.1099 C   0  0  0  0  0  0  0  0  0  0  0  0
   12.2115    0.9747   23.7879 C   0  0  0  0  0  0  0  0  0  0  0  0
   10.9215    0.4997   23.6170 C   0  0  0  0  0  0  0  0  0  0  0  0
   11.7443   -1.1944   22.1150 C   0  0  0  0  0  0  0  0  0  0  0  0
   10.6824   -0.5563   22.7451 C   0  0  0  0  0  0  0  0  0  0  0  0
    9.3783   -0.8192   22.2742 N   0  0  0  0  0  0  0  0  0  0  0  0
    8.7363   -0.0492   21.3442 C   0  0  0  0  0  0  0  0  0  0  0  0
    9.2023    0.9977   20.9012 O   0  0  0  0  0  0  0  0  0  0  0  0
    7.5422   -0.5712   20.9294 N   0  0  0  0  0  0  0  0  0  0  0  0
    6.7562   -0.0202   19.8954 C   0  0  0  0  0  0  0  0  0  0  0  0
    7.2171   -0.0803   18.5824 C   0  0  0  0  0  0  0  0  0  0  0  0
    6.6200    0.5347   17.5594 N   0  0  0  0  0  0  0  0  0  0  0  0
    5.5071    1.2238   17.8124 C   0  0  0  0  0  0  0  0  0  0  0  0
    5.5962    0.7049   20.1415 C   0  0  0  0  0  0  0  0  0  0  0  0
    4.9452    1.3519   19.0915 C   0  0  0  0  0  0  0  0  0  0  0  0
    3.8142    2.0949   19.3195 N   0  0  0  0  0  0  0  0  0  0  0  0
   14.2722    0.7811   23.2124 H   0  0  0  0  0  0  0  0  0  0  0  0
   12.3936    1.8054   24.4537 H   0  0  0  0  0  0  0  0  0  0  0  0
   10.1032    0.9489   24.1601 H   0  0  0  0  0  0  0  0  0  0  0  0
   11.5743   -2.0602   21.4922 H   0  0  0  0  0  0  0  0  0  0  0  0
    8.8960   -1.6144   22.6418 H   0  0  0  0  0  0  0  0  0  0  0  0
    7.2055   -1.3941   21.3870 H   0  0  0  0  0  0  0  0  0  0  0  0
    8.1077   -0.6569   18.3807 H   0  0  0  0  0  0  0  0  0  0  0  0
    5.0101    1.7107   16.9864 H   0  0  0  0  0  0  0  0  0  0  0  0
    5.1997    0.7671   21.1441 H   0  0  0  0  0  0  0  0  0  0  0  0
    3.4889    2.4811   18.4565 H   0  0  0  0  0  0  0  0  0  0  0  0
    4.0246    2.8358   19.9574 H   0  0  0  0  0  0  0  0  0  0  0  0
  1  2  1  0
  2  3  2  0
  2  6  1  0
  3  4  1  0
  3 19  1  0
  4  5  2  0
  4 20  1  0
  5  7  1  0
  5 21  1  0
  6  7  2  0
  6 22  1  0
  7  8  1  0
  8  9  1  0
  8 23  1  0
  9 10  2  0
  9 11  1  0
 11 12  1  0
 11 24  1  0
 12 13  2  0
 12 16  1  0
 13 14  1  0
 13 25  1  0
 14 15  2  0
 15 17  1  0
 15 26  1  0
 16 17  2  0
 16 27  1  0
 17 18  1  0
 18 28  1  0
 18 29  1  0
M  END
$$$$
