LIG(A-306)
     RDKit          3D

 51 54  0  0  1  0  0  0  0  0999 V2000
   14.0328   -1.4414   21.4571 Cl  0  0  0  0  0  0  0  0  0  0  0  0
   12.7577   -0.7559   22.4324 C   0  0  0  0  0  0  0  0  0  0  0  0
   11.4613   -1.2013   22.2556 C   0  0  0  0  0  0  0  0  0  0  0  0
   13.0609    0.2441   23.3331 C   0  0  0  0  0  0  0  0  0  0  0  0
   12.0448    0.7939   24.0930 C   0  0  0  0  0  0  0  0  0  0  0  0
   10.7224    0.3765   23.9350 C   0  0  0  0  0  0  0  0  0  0  0  0
    9.6383    0.9927   24.7946 C   0  0  1  0  0  0  0  0  0  0  0  0
    8.2940    0.7778   24.2354 N   0  0  2  0  0  0  0  0  0  0  0  0
    7.2280    1.3289   25.0664 C   0  0  1  0  0  0  0  0  0  0  0  0
    6.7450    2.7075   24.6406 C   0  0  0  0  0  0  0  0  0  0  0  0
    5.9787    3.3375   25.3657 O   0  0  0  0  0  0  0  0  0  0  0  0
    7.1627    3.1742   23.4653 N   0  0  0  0  0  0  0  0  0  0  0  0
    6.6048    4.3675   22.8538 C   0  0  1  0  0  0  0  0  0  0  0  0
   10.4251   -0.6148   22.9823 C   0  0  0  0  0  0  0  0  0  0  0  0
    8.9753   -0.9543   22.6760 C   0  0  1  0  0  0  0  0  0  0  0  0
    8.0971   -0.6297   23.8841 C   0  0  1  0  0  0  0  0  0  0  0  0
    8.4784   -0.0661   21.5332 C   0  0  0  0  0  0  0  0  0  0  0  0
    8.7031    1.1472   21.5027 O   0  0  0  0  0  0  0  0  0  0  0  0
    7.7105   -0.7020   20.6179 N   0  0  0  0  0  0  0  0  0  0  0  0
    6.7275   -0.2192   19.7172 C   0  0  0  0  0  0  0  0  0  0  0  0
    5.7412    0.7454   20.1215 C   0  0  0  0  0  0  0  0  0  0  0  0
    5.3285    0.9298   21.4659 C   0  0  0  0  0  0  0  0  0  0  0  0
    4.2594    1.7247   21.7734 C   0  0  0  0  0  0  0  0  0  0  0  0
    3.5630    2.3954   20.7771 C   0  0  0  0  0  0  0  0  0  0  0  0
    3.9277    2.2662   19.4694 C   0  0  0  0  0  0  0  0  0  0  0  0
    5.0108    1.4260   19.1012 C   0  0  0  0  0  0  0  0  0  0  0  0
    5.3078    1.1134   17.7547 C   0  0  0  0  0  0  0  0  0  0  0  0
    6.2000    0.2118   17.3821 N   0  0  0  0  0  0  0  0  0  0  0  0
    6.8693   -0.4312   18.3462 C   0  0  0  0  0  0  0  0  0  0  0  0
   11.2517   -1.9992   21.5586 H   0  0  0  0  0  0  0  0  0  0  0  0
   14.0772    0.5926   23.4431 H   0  0  0  0  0  0  0  0  0  0  0  0
   12.2781    1.5579   24.8198 H   0  0  0  0  0  0  0  0  0  0  0  0
    9.6813    0.5407   25.7965 H   0  0  0  0  0  0  0  0  0  0  0  0
    9.8205    2.0747   24.8724 H   0  0  0  0  0  0  0  0  0  0  0  0
    8.2678    1.2859   23.3745 H   0  0  0  0  0  0  0  0  0  0  0  0
    6.3723    0.6386   25.0299 H   0  0  0  0  0  0  0  0  0  0  0  0
    7.5989    1.3988   26.0995 H   0  0  0  0  0  0  0  0  0  0  0  0
    7.8895    2.6834   22.9847 H   0  0  0  0  0  0  0  0  0  0  0  0
    7.1049    4.5554   21.8921 H   0  0  0  0  0  0  0  0  0  0  0  0
    5.5275    4.2233   22.6847 H   0  0  0  0  0  0  0  0  0  0  0  0
    6.7593    5.2279   23.5214 H   0  0  0  0  0  0  0  0  0  0  0  0
    8.8773   -2.0160   22.4056 H   0  0  0  0  0  0  0  0  0  0  0  0
    8.3832   -1.2677   24.7332 H   0  0  0  0  0  0  0  0  0  0  0  0
    7.0407   -0.8054   23.6331 H   0  0  0  0  0  0  0  0  0  0  0  0
    7.8637   -1.6889   20.5680 H   0  0  0  0  0  0  0  0  0  0  0  0
    5.8675    0.4341   22.2598 H   0  0  0  0  0  0  0  0  0  0  0  0
    3.9530    1.8320   22.8034 H   0  0  0  0  0  0  0  0  0  0  0  0
    2.7256    3.0247   21.0399 H   0  0  0  0  0  0  0  0  0  0  0  0
    3.3876    2.8081   18.7072 H   0  0  0  0  0  0  0  0  0  0  0  0
    4.7721    1.6446   16.9820 H   0  0  0  0  0  0  0  0  0  0  0  0
    7.5822   -1.1805   18.0350 H   0  0  0  0  0  0  0  0  0  0  0  0
  1  2  1  0
  2  3  2  0
  2  4  1  0
  3 14  1  0
  3 30  1  0
  4  5  2  0
  4 31  1  0
  5  6  1  0
  5 32  1  0
  6  7  1  0
  6 14  2  0
  7  8  1  0
  7 33  1  1
  7 34  1  0
  8  9  1  0
  8 16  1  0
  8 35  1  6
  9 10  1  0
  9 36  1  1
  9 37  1  0
 10 11  2  0
 10 12  1  0
 12 13  1  0
 12 38  1  0
 13 39  1  6
 13 40  1  0
 13 41  1  0
 14 15  1  0
 15 16  1  0
 15 17  1  0
 15 42  1  6
 16 43  1  1
 16 44  1  0
 17 18  2  0
 17 19  1  0
 19 20  1  0
 19 45  1  0
 20 21  2  0
 20 29  1  0
 21 22  1  0
 21 26  1  0
 22 23  2  0
 22 46  1  0
 23 24  1  0
 23 47  1  0
 24 25  2  0
 24 48  1  0
 25 26  1  0
 25 49  1  0
 26 27  2  0
 27 28  1  0
 27 50  1  0
 28 29  2  0
 29 51  1  0
M  CHG  1   8   1
M  END
$$$$
