LIG(A-305)
     RDKit          3D

 40 41  0  0  1  0  0  0  0  0999 V2000
   14.0385   -1.4204   21.1729 Cl  0  0  0  0  0  0  0  0  0  0  0  0
   12.9096   -0.6024   22.2189 C   0  0  0  0  0  0  0  0  0  0  0  0
   13.3758    0.3617   23.0889 C   0  0  0  0  0  0  0  0  0  0  0  0
   12.4869    0.9377   23.9819 C   0  0  0  0  0  0  0  0  0  0  0  0
   11.1518    0.5638   23.9791 C   0  0  0  0  0  0  0  0  0  0  0  0
   11.5756   -0.9693   22.1881 C   0  0  0  0  0  0  0  0  0  0  0  0
   10.6767   -0.3703   23.0671 C   0  0  0  0  0  0  0  0  0  0  0  0
    9.1757   -0.5922   22.9173 C   0  0  2  0  0  0  0  0  0  0  0  0
    8.7197   -1.9772   23.2144 N   0  0  1  0  0  0  0  0  0  0  0  0
    9.5988   -2.7362   24.1073 C   0  0  1  0  0  0  0  0  0  0  0  0
    7.3638   -1.9842   23.7605 C   0  0  1  0  0  0  0  0  0  0  0  0
    8.6156    0.0367   21.6283 C   0  0  0  0  0  0  0  0  0  0  0  0
    9.1176    1.0567   21.1722 O   0  0  0  0  0  0  0  0  0  0  0  0
    7.5425   -0.5753   21.0715 N   0  0  0  0  0  0  0  0  0  0  0  0
    6.7635   -0.0453   20.0165 C   0  0  0  0  0  0  0  0  0  0  0  0
    5.5595    0.6308   20.3056 C   0  0  0  0  0  0  0  0  0  0  0  0
    5.0016    0.7058   21.7036 C   0  0  1  0  0  0  0  0  0  0  0  0
    4.9014    1.2457   19.2456 C   0  0  0  0  0  0  0  0  0  0  0  0
    5.4383    1.1787   17.9756 C   0  0  0  0  0  0  0  0  0  0  0  0
    6.5762    0.5326   17.6875 N   0  0  0  0  0  0  0  0  0  0  0  0
    7.2073   -0.0753   18.6955 C   0  0  0  0  0  0  0  0  0  0  0  0
   14.4133    0.6614   23.0739 H   0  0  0  0  0  0  0  0  0  0  0  0
   12.8354    1.6813   24.6834 H   0  0  0  0  0  0  0  0  0  0  0  0
   10.4730    1.0039   24.6945 H   0  0  0  0  0  0  0  0  0  0  0  0
   11.2336   -1.7158   21.4864 H   0  0  0  0  0  0  0  0  0  0  0  0
    8.7356    0.0173   23.7202 H   0  0  0  0  0  0  0  0  0  0  0  0
    8.6902   -2.4667   22.3429 H   0  0  0  0  0  0  0  0  0  0  0  0
    9.1811   -3.7412   24.2667 H   0  0  0  0  0  0  0  0  0  0  0  0
   10.5969   -2.8219   23.6531 H   0  0  0  0  0  0  0  0  0  0  0  0
    9.6788   -2.2152   25.0728 H   0  0  0  0  0  0  0  0  0  0  0  0
    7.0572   -3.0198   23.9689 H   0  0  0  0  0  0  0  0  0  0  0  0
    7.3411   -1.4006   24.6927 H   0  0  0  0  0  0  0  0  0  0  0  0
    6.6725   -1.5370   23.0311 H   0  0  0  0  0  0  0  0  0  0  0  0
    7.2815   -1.4699   21.4340 H   0  0  0  0  0  0  0  0  0  0  0  0
    5.7275    1.2053   22.3623 H   0  0  0  0  0  0  0  0  0  0  0  0
    4.0621    1.2778   21.6931 H   0  0  0  0  0  0  0  0  0  0  0  0
    4.8078   -0.3109   22.0760 H   0  0  0  0  0  0  0  0  0  0  0  0
    3.9745    1.7734   19.4155 H   0  0  0  0  0  0  0  0  0  0  0  0
    4.9133    1.6731   17.1716 H   0  0  0  0  0  0  0  0  0  0  0  0
    8.1127   -0.6211   18.4745 H   0  0  0  0  0  0  0  0  0  0  0  0
  1  2  1  0
  2  3  2  0
  2  6  1  0
  3  4  1  0
  3 22  1  0
  4  5  2  0
  4 23  1  0
  5  7  1  0
  5 24  1  0
  6  7  2  0
  6 25  1  0
  7  8  1  0
  8  9  1  0
  8 12  1  0
  8 26  1  1
  9 10  1  0
  9 11  1  0
  9 27  1  6
 10 28  1  1
 10 29  1  0
 10 30  1  0
 11 31  1  1
 11 32  1  0
 11 33  1  0
 12 13  2  0
 12 14  1  0
 14 15  1  0
 14 34  1  0
 15 16  2  0
 15 21  1  0
 16 17  1  0
 16 18  1  0
 17 35  1  1
 17 36  1  0
 17 37  1  0
 18 19  2  0
 18 38  1  0
 19 20  1  0
 19 39  1  0
 20 21  2  0
 21 40  1  0
M  CHG  1   9   1
M  END
$$$$
