LIG(A-305)
     RDKit          3D

 44 46  0  0  1  0  0  0  0  0999 V2000
   13.7390   -1.3064   20.8048 F   0  0  0  0  0  0  0  0  0  0  0  0
   12.9963   -0.8721   21.8549 C   0  0  0  0  0  0  0  0  0  0  0  0
   13.4637    0.1879   22.5897 C   0  0  0  0  0  0  0  0  0  0  0  0
   12.7240    0.6082   23.6808 C   0  0  0  0  0  0  0  0  0  0  0  0
   11.8233   -1.5218   22.1362 C   0  0  0  0  0  0  0  0  0  0  0  0
   11.0836   -1.0995   23.2263 C   0  0  0  0  0  0  0  0  0  0  0  0
   11.5430   -0.0455   23.9981 C   0  0  0  0  0  0  0  0  0  0  0  0
   10.5844    0.5079   25.3642 S   0  0  2  0  0  0  0  0  0  0  0  0
   11.3797    1.4238   26.1239 O   0  0  0  0  0  0  0  0  0  0  0  0
   10.0183   -0.6419   26.0065 O   0  0  0  0  0  0  0  0  0  0  0  0
    9.3594    1.3470   24.6954 N   0  0  0  0  0  0  0  0  0  0  0  0
    9.2106    2.7050   24.2962 C   0  0  0  0  0  0  0  0  0  0  0  0
   10.0159    3.7249   24.8089 C   0  0  0  0  0  0  0  0  0  0  0  0
    9.8961    5.0149   24.3138 C   0  0  0  0  0  0  0  0  0  0  0  0
    8.9849    5.2989   23.3150 C   0  0  0  0  0  0  0  0  0  0  0  0
    8.2016    4.2920   22.7713 C   0  0  0  0  0  0  0  0  0  0  0  0
    8.3304    2.9831   23.2404 C   0  0  0  0  0  0  0  0  0  0  0  0
    7.7551    1.8761   22.5687 N   0  0  0  0  0  0  0  0  0  0  0  0
    8.3017    1.2159   21.5156 C   0  0  0  0  0  0  0  0  0  0  0  0
    9.2897    1.6186   20.9074 O   0  0  0  0  0  0  0  0  0  0  0  0
    7.7173   -0.1571   21.1709 C   0  0  1  0  0  0  0  0  0  0  0  0
    6.8225   -0.6367   22.1732 O   0  0  0  0  0  0  0  0  0  0  0  0
    6.9241    0.1639   19.9131 C   0  0  0  0  0  0  0  0  0  0  0  0
    7.4778    0.0437   18.6460 C   0  0  0  0  0  0  0  0  0  0  0  0
    6.8757    0.4456   17.5200 N   0  0  0  0  0  0  0  0  0  0  0  0
    5.6518    0.9789   17.6342 C   0  0  0  0  0  0  0  0  0  0  0  0
    4.9961    1.1202   18.8413 C   0  0  0  0  0  0  0  0  0  0  0  0
    5.6463    0.7022   19.9893 C   0  0  0  0  0  0  0  0  0  0  0  0
   14.3863    0.6821   22.3230 H   0  0  0  0  0  0  0  0  0  0  0  0
   13.0639    1.4393   24.2809 H   0  0  0  0  0  0  0  0  0  0  0  0
   11.4845   -2.3432   21.5222 H   0  0  0  0  0  0  0  0  0  0  0  0
   10.1532   -1.5890   23.4740 H   0  0  0  0  0  0  0  0  0  0  0  0
    8.4823    0.9832   25.0090 H   0  0  0  0  0  0  0  0  0  0  0  0
   10.7305    3.5093   25.5895 H   0  0  0  0  0  0  0  0  0  0  0  0
   10.5190    5.8023   24.7116 H   0  0  0  0  0  0  0  0  0  0  0  0
    8.8820    6.3120   22.9551 H   0  0  0  0  0  0  0  0  0  0  0  0
    7.4942    4.5195   21.9875 H   0  0  0  0  0  0  0  0  0  0  0  0
    6.8685    1.5526   22.8992 H   0  0  0  0  0  0  0  0  0  0  0  0
    8.5206   -0.8761   20.9523 H   0  0  0  0  0  0  0  0  0  0  0  0
    6.8335   -1.5866   22.1799 H   0  0  0  0  0  0  0  0  0  0  0  0
    8.4576   -0.4031   18.5631 H   0  0  0  0  0  0  0  0  0  0  0  0
    5.1531    1.3151   16.7372 H   0  0  0  0  0  0  0  0  0  0  0  0
    4.0042    1.5448   18.8882 H   0  0  0  0  0  0  0  0  0  0  0  0
    5.1580    0.7949   20.9480 H   0  0  0  0  0  0  0  0  0  0  0  0
  1  2  1  0
  2  3  2  0
  2  5  1  0
  3  4  1  0
  3 29  1  0
  4  7  2  0
  4 30  1  0
  5  6  2  0
  5 31  1  0
  6  7  1  0
  6 32  1  0
  7  8  1  0
  8  9  2  0
  8 10  2  0
  8 11  1  6
 11 12  1  0
 11 33  1  0
 12 13  2  0
 12 17  1  0
 13 14  1  0
 13 34  1  0
 14 15  2  0
 14 35  1  0
 15 16  1  0
 15 36  1  0
 16 17  2  0
 16 37  1  0
 17 18  1  0
 18 19  1  0
 18 38  1  0
 19 20  2  0
 19 21  1  0
 21 22  1  0
 21 23  1  0
 21 39  1  6
 22 40  1  0
 23 24  2  0
 23 28  1  0
 24 25  1  0
 24 41  1  0
 25 26  2  0
 26 27  1  0
 26 42  1  0
 27 28  2  0
 27 43  1  0
 28 44  1  0
M  END
$$$$
