LIG(A-306)
     RDKit          3D

 45 47  0  0  1  0  0  0  0  0999 V2000
    2.8559    0.6840   23.9992 O   0  0  0  0  0  0  0  0  0  0  0  0
    2.8281    2.1056   24.1388 S   0  0  2  0  0  0  0  0  0  0  0  0
    3.0984    2.6781   25.4194 O   0  0  0  0  0  0  0  0  0  0  0  0
    1.2703    2.6931   23.5889 C   0  0  1  0  0  0  0  0  0  0  0  0
    3.9613    2.7031   23.1146 N   0  0  0  0  0  0  0  0  0  0  0  0
    4.5060    4.0391   23.3954 C   0  0  1  0  0  0  0  0  0  0  0  0
    4.1630    2.0963   21.8145 C   0  0  0  0  0  0  0  0  0  0  0  0
    5.1926    1.1759   21.6334 C   0  0  0  0  0  0  0  0  0  0  0  0
    5.5978    0.7796   20.3337 C   0  0  0  0  0  0  0  0  0  0  0  0
    4.9075    1.3240   19.2138 C   0  0  0  0  0  0  0  0  0  0  0  0
    3.8316    2.2167   19.4371 C   0  0  0  0  0  0  0  0  0  0  0  0
    3.4711    2.5797   20.7003 C   0  0  0  0  0  0  0  0  0  0  0  0
    6.7013   -0.0918   20.0780 C   0  0  0  0  0  0  0  0  0  0  0  0
    7.0282   -0.3530   18.7486 C   0  0  0  0  0  0  0  0  0  0  0  0
    6.3887    0.1581   17.6872 N   0  0  0  0  0  0  0  0  0  0  0  0
    5.3622    0.9660   17.9206 C   0  0  0  0  0  0  0  0  0  0  0  0
    7.4441   -0.5698   21.1727 N   0  0  0  0  0  0  0  0  0  0  0  0
    8.5448   -0.0232   21.7323 C   0  0  0  0  0  0  0  0  0  0  0  0
    9.0225    1.0577   21.3841 O   0  0  0  0  0  0  0  0  0  0  0  0
    9.1642   -0.8603   22.8346 C   0  0  1  0  0  0  0  0  0  0  0  0
   10.6242   -0.5459   23.0618 C   0  0  0  0  0  0  0  0  0  0  0  0
   11.6013   -1.1553   22.2800 C   0  0  0  0  0  0  0  0  0  0  0  0
   12.9189   -0.7586   22.4022 C   0  0  0  0  0  0  0  0  0  0  0  0
   14.1193   -1.5067   21.3888 Cl  0  0  0  0  0  0  0  0  0  0  0  0
   13.3048    0.2190   23.2955 C   0  0  0  0  0  0  0  0  0  0  0  0
   12.3408    0.7946   24.1054 C   0  0  0  0  0  0  0  0  0  0  0  0
   11.0114    0.4156   23.9886 C   0  0  0  0  0  0  0  0  0  0  0  0
    1.2340    3.7878   23.6905 H   0  0  0  0  0  0  0  0  0  0  0  0
    1.1266    2.4180   22.5336 H   0  0  0  0  0  0  0  0  0  0  0  0
    0.4728    2.2418   24.1973 H   0  0  0  0  0  0  0  0  0  0  0  0
    5.2492    4.3012   22.6280 H   0  0  0  0  0  0  0  0  0  0  0  0
    3.6906    4.7773   23.3833 H   0  0  0  0  0  0  0  0  0  0  0  0
    4.9857    4.0387   24.3853 H   0  0  0  0  0  0  0  0  0  0  0  0
    5.6899    0.7577   22.4961 H   0  0  0  0  0  0  0  0  0  0  0  0
    3.2881    2.6160   18.5937 H   0  0  0  0  0  0  0  0  0  0  0  0
    2.6377    3.2517   20.8427 H   0  0  0  0  0  0  0  0  0  0  0  0
    7.8588   -1.0168   18.5594 H   0  0  0  0  0  0  0  0  0  0  0  0
    4.8394    1.3772   17.0697 H   0  0  0  0  0  0  0  0  0  0  0  0
    7.1168   -1.4187   21.5875 H   0  0  0  0  0  0  0  0  0  0  0  0
    8.6151   -0.6720   23.7690 H   0  0  0  0  0  0  0  0  0  0  0  0
    9.0721   -1.9222   22.5628 H   0  0  0  0  0  0  0  0  0  0  0  0
   11.3309   -1.9337   21.5819 H   0  0  0  0  0  0  0  0  0  0  0  0
   14.3373    0.5288   23.3617 H   0  0  0  0  0  0  0  0  0  0  0  0
   12.6250    1.5421   24.8313 H   0  0  0  0  0  0  0  0  0  0  0  0
   10.2683    0.8729   24.6251 H   0  0  0  0  0  0  0  0  0  0  0  0
  1  2  2  0
  2  3  2  0
  2  4  1  0
  2  5  1  6
  4 28  1  6
  4 29  1  0
  4 30  1  0
  5  6  1  0
  5  7  1  0
  6 31  1  6
  6 32  1  0
  6 33  1  0
  7  8  2  0
  7 12  1  0
  8  9  1  0
  8 34  1  0
  9 10  2  0
  9 13  1  0
 10 11  1  0
 10 16  1  0
 11 12  2  0
 11 35  1  0
 12 36  1  0
 13 14  2  0
 13 17  1  0
 14 15  1  0
 14 37  1  0
 15 16  2  0
 16 38  1  0
 17 18  1  0
 17 39  1  0
 18 19  2  0
 18 20  1  0
 20 21  1  0
 20 40  1  1
 20 41  1  0
 21 22  2  0
 21 27  1  0
 22 23  1  0
 22 42  1  0
 23 24  1  0
 23 25  2  0
 25 26  1  0
 25 43  1  0
 26 27  2  0
 26 44  1  0
 27 45  1  0
M  END
$$$$
