LIG(A-306)
     RDKit          3D

 40 44  0  0  1  0  0  0  0  0999 V2000
    9.2275    1.4048   21.2356 O   0  0  0  0  0  0  0  0  0  0  0  0
    8.7653    0.3901   21.7242 C   0  0  0  0  0  0  0  0  0  0  0  0
    9.3018   -0.3387   22.9576 C   0  0  1  0  0  0  0  0  0  0  0  0
   10.8017   -0.3676   23.0101 C   0  0  0  0  0  0  0  0  0  0  0  0
   11.7239   -1.0825   22.2530 C   0  0  0  0  0  0  0  0  0  0  0  0
   13.0630   -0.7605   22.3797 C   0  0  0  0  0  0  0  0  0  0  0  0
   14.2274   -1.5845   21.3731 Cl  0  0  0  0  0  0  0  0  0  0  0  0
   13.5015    0.2200   23.2582 C   0  0  0  0  0  0  0  0  0  0  0  0
   12.5784    0.9014   24.0362 C   0  0  0  0  0  0  0  0  0  0  0  0
   11.2346    0.5961   23.9051 C   0  0  0  0  0  0  0  0  0  0  0  0
   10.2084    1.1460   24.6450 O   0  0  0  0  0  0  0  0  0  0  0  0
    8.9866    0.4510   24.2502 C   0  0  2  0  0  0  0  0  0  0  0  0
    8.6981   -1.7524   22.8056 C   0  0  1  0  0  0  0  0  0  0  0  0
    7.4233   -1.5399   21.9972 C   0  0  1  0  0  0  0  0  0  0  0  0
    7.6812   -0.2942   21.2591 N   0  0  0  0  0  0  0  0  0  0  0  0
    6.8601    0.1091   20.1563 C   0  0  0  0  0  0  0  0  0  0  0  0
    7.1984   -0.1927   18.8409 C   0  0  0  0  0  0  0  0  0  0  0  0
    6.5370    0.2397   17.7577 N   0  0  0  0  0  0  0  0  0  0  0  0
    5.4706    0.9993   17.9581 C   0  0  0  0  0  0  0  0  0  0  0  0
    5.7159    0.9291   20.3759 C   0  0  0  0  0  0  0  0  0  0  0  0
    5.2881    1.3476   21.6607 C   0  0  0  0  0  0  0  0  0  0  0  0
    4.2117    2.1660   21.7594 C   0  0  0  0  0  0  0  0  0  0  0  0
    3.8529    2.6058   22.9907 F   0  0  0  0  0  0  0  0  0  0  0  0
    4.9982    1.3867   19.2361 C   0  0  0  0  0  0  0  0  0  0  0  0
    3.8755    2.2278   19.4245 C   0  0  0  0  0  0  0  0  0  0  0  0
    3.4918    2.6100   20.6740 C   0  0  0  0  0  0  0  0  0  0  0  0
   11.4029   -1.8676   21.5845 H   0  0  0  0  0  0  0  0  0  0  0  0
   14.5537    0.4504   23.3353 H   0  0  0  0  0  0  0  0  0  0  0  0
   12.9028    1.6590   24.7342 H   0  0  0  0  0  0  0  0  0  0  0  0
    8.6731   -0.2402   25.0463 H   0  0  0  0  0  0  0  0  0  0  0  0
    8.1844    1.1792   24.0598 H   0  0  0  0  0  0  0  0  0  0  0  0
    9.3924   -2.4158   22.2691 H   0  0  0  0  0  0  0  0  0  0  0  0
    8.4662   -2.1838   23.7906 H   0  0  0  0  0  0  0  0  0  0  0  0
    7.2537   -2.3778   21.3051 H   0  0  0  0  0  0  0  0  0  0  0  0
    6.5524   -1.4298   22.6601 H   0  0  0  0  0  0  0  0  0  0  0  0
    8.0600   -0.8238   18.6800 H   0  0  0  0  0  0  0  0  0  0  0  0
    4.9265    1.3456   17.0918 H   0  0  0  0  0  0  0  0  0  0  0  0
    5.8111    1.0197   22.5469 H   0  0  0  0  0  0  0  0  0  0  0  0
    3.3163    2.5707   18.5667 H   0  0  0  0  0  0  0  0  0  0  0  0
    2.6346    3.2524   20.8110 H   0  0  0  0  0  0  0  0  0  0  0  0
  1  2  2  0
  3  2  1  6
  2 15  1  0
  3  4  1  0
  3 12  1  0
  3 13  1  0
  4  5  2  0
  4 10  1  0
  5  6  1  0
  5 27  1  0
  6  7  1  0
  6  8  2  0
  8  9  1  0
  8 28  1  0
  9 10  2  0
  9 29  1  0
 10 11  1  0
 11 12  1  0
 12 30  1  1
 12 31  1  0
 13 14  1  0
 13 32  1  6
 13 33  1  0
 14 15  1  0
 14 34  1  6
 14 35  1  0
 15 16  1  0
 16 17  2  0
 16 20  1  0
 17 18  1  0
 17 36  1  0
 18 19  2  0
 19 24  1  0
 19 37  1  0
 20 21  2  0
 20 24  1  0
 21 22  1  0
 21 38  1  0
 22 23  1  0
 22 26  2  0
 24 25  2  0
 25 26  1  0
 25 39  1  0
 26 40  1  0
M  END
$$$$
