LIG(A-305)
     RDKit          3D

 31 33  0  0  0  0  0  0  0  0999 V2000
   22.1242   18.2842    4.0513 C   0  0  0  0  0  0  0  0  0  0  0  0
   21.2582   19.3613    3.9194 C   0  0  0  0  0  0  0  0  0  0  0  0
   20.5924   19.8414    5.0365 C   0  0  0  0  0  0  0  0  0  0  0  0
   20.7715   19.2444    6.2795 C   0  0  0  0  0  0  0  0  0  0  0  0
   21.6344   18.1623    6.4104 C   0  0  0  0  0  0  0  0  0  0  0  0
   22.3043   17.6853    5.2893 C   0  0  0  0  0  0  0  0  0  0  0  0
   23.2632   16.5102    5.3872 C   0  0  1  0  0  0  0  0  0  0  0  0
   23.7429   14.3081    4.3132 C   0  0  0  0  0  0  0  0  0  0  0  0
   25.4768   12.9860    4.5291 C   0  0  0  0  0  0  0  0  0  0  0  0
   26.6928   12.3209    4.8799 C   0  0  0  0  0  0  0  0  0  0  0  0
   27.0467   11.1389    4.2329 C   0  0  0  0  0  0  0  0  0  0  0  0
   26.2205   10.6079    3.2380 C   0  0  0  0  0  0  0  0  0  0  0  0
   25.0395   11.2600    2.8962 C   0  0  0  0  0  0  0  0  0  0  0  0
   24.6697   12.4650    3.5622 C   0  0  0  0  0  0  0  0  0  0  0  0
   22.8380   15.4242    4.5243 N   0  0  0  0  0  0  0  0  0  0  0  0
   24.8810   14.1261    4.9791 N   0  0  0  0  0  0  0  0  0  0  0  0
   23.6047   13.3011    3.4503 N   0  0  0  0  0  0  0  0  0  0  0  0
   22.8110   17.7842    2.9403 O   0  0  0  0  0  0  0  0  0  0  0  0
   21.1045   19.8214    2.9544 H   0  0  0  0  0  0  0  0  0  0  0  0
   19.9280   20.6874    4.9404 H   0  0  0  0  0  0  0  0  0  0  0  0
   20.2411   19.6206    7.1417 H   0  0  0  0  0  0  0  0  0  0  0  0
   21.7830   17.6968    7.3735 H   0  0  0  0  0  0  0  0  0  0  0  0
   24.2683   16.8389    5.0844 H   0  0  0  0  0  0  0  0  0  0  0  0
   23.2918   16.1539    6.4275 H   0  0  0  0  0  0  0  0  0  0  0  0
   27.3350   12.7335    5.6440 H   0  0  0  0  0  0  0  0  0  0  0  0
   27.9617   10.6314    4.5007 H   0  0  0  0  0  0  0  0  0  0  0  0
   26.4983    9.6932    2.7355 H   0  0  0  0  0  0  0  0  0  0  0  0
   24.4023   10.8525    2.1252 H   0  0  0  0  0  0  0  0  0  0  0  0
   21.8683   15.3212    4.3029 H   0  0  0  0  0  0  0  0  0  0  0  0
   25.2410   14.7280    5.6931 H   0  0  0  0  0  0  0  0  0  0  0  0
   23.0380   16.8741    3.0910 H   0  0  0  0  0  0  0  0  0  0  0  0
  1  2  2  0
  1  6  1  0
  1 18  1  0
  2  3  1  0
  2 19  1  0
  3  4  2  0
  3 20  1  0
  4  5  1  0
  4 21  1  0
  5  6  2  0
  5 22  1  0
  6  7  1  0
  7 15  1  0
  7 23  1  6
  7 24  1  0
  8 15  1  0
  8 16  1  0
  8 17  2  0
  9 10  2  0
  9 14  1  0
  9 16  1  0
 10 11  1  0
 10 25  1  0
 11 12  2  0
 11 26  1  0
 12 13  1  0
 12 27  1  0
 13 14  2  0
 13 28  1  0
 14 17  1  0
 15 29  1  0
 16 30  1  0
 18 31  1  0
M  END
$$$$
