LIG(A-306)
     RDKit          3D

 33 35  0  0  0  0  0  0  0  0999 V2000
   -9.1226    0.5217  -20.9800 O   0  0  0  0  0  0  0  0  0  0  0  0
   -8.5086   -0.4694  -21.3822 C   0  0  0  0  0  0  0  0  0  0  0  0
   -8.8970   -1.1871  -22.6572 C   0  0  1  0  0  0  0  0  0  0  0  0
  -10.3925   -1.3250  -22.7727 C   0  0  0  0  0  0  0  0  0  0  0  0
  -11.0810   -2.2988  -22.0611 C   0  0  0  0  0  0  0  0  0  0  0  0
  -12.4533   -2.3709  -22.1986 C   0  0  0  0  0  0  0  0  0  0  0  0
  -11.0094   -0.4417  -23.5758 N   0  0  0  0  0  0  0  0  0  0  0  0
  -12.3418   -0.5220  -23.6973 C   0  0  0  0  0  0  0  0  0  0  0  0
  -13.0833   -1.4865  -23.0377 C   0  0  0  0  0  0  0  0  0  0  0  0
  -14.7871   -1.6622  -23.3400 Cl  0  0  0  0  0  0  0  0  0  0  0  0
   -7.4280   -0.9892  -20.7645 N   0  0  0  0  0  0  0  0  0  0  0  0
   -6.7042   -0.4277  -19.7025 C   0  0  0  0  0  0  0  0  0  0  0  0
   -5.6604    0.4889  -20.0277 C   0  0  0  0  0  0  0  0  0  0  0  0
   -5.1557    0.6772  -21.3397 C   0  0  0  0  0  0  0  0  0  0  0  0
   -4.1608    1.5796  -21.5869 C   0  0  0  0  0  0  0  0  0  0  0  0
   -3.6235    2.3387  -20.5580 C   0  0  0  0  0  0  0  0  0  0  0  0
   -4.0692    2.1874  -19.2749 C   0  0  0  0  0  0  0  0  0  0  0  0
   -5.0921    1.2538  -18.9728 C   0  0  0  0  0  0  0  0  0  0  0  0
   -5.5719    1.0195  -17.6599 C   0  0  0  0  0  0  0  0  0  0  0  0
   -6.5137    0.1357  -17.3548 N   0  0  0  0  0  0  0  0  0  0  0  0
   -7.0587   -0.5614  -18.3614 C   0  0  0  0  0  0  0  0  0  0  0  0
   -8.5222   -0.6153  -23.5189 H   0  0  0  0  0  0  0  0  0  0  0  0
   -8.4436   -2.1893  -22.6569 H   0  0  0  0  0  0  0  0  0  0  0  0
  -10.5546   -2.9849  -21.4142 H   0  0  0  0  0  0  0  0  0  0  0  0
  -13.0213   -3.1111  -21.6547 H   0  0  0  0  0  0  0  0  0  0  0  0
  -12.8529    0.1884  -24.3301 H   0  0  0  0  0  0  0  0  0  0  0  0
   -7.1069   -1.8743  -21.1014 H   0  0  0  0  0  0  0  0  0  0  0  0
   -5.5640    0.0986  -22.1551 H   0  0  0  0  0  0  0  0  0  0  0  0
   -3.7888    1.7032  -22.5933 H   0  0  0  0  0  0  0  0  0  0  0  0
   -2.8456    3.0563  -20.7727 H   0  0  0  0  0  0  0  0  0  0  0  0
   -3.6384    2.7841  -18.4845 H   0  0  0  0  0  0  0  0  0  0  0  0
   -5.1430    1.5981  -16.8551 H   0  0  0  0  0  0  0  0  0  0  0  0
   -7.8281   -1.2785  -18.1156 H   0  0  0  0  0  0  0  0  0  0  0  0
  1  2  2  0
  2  3  1  0
  2 11  1  0
  3  4  1  0
  3 22  1  6
  3 23  1  0
  4  5  2  0
  4  7  1  0
  5  6  1  0
  5 24  1  0
  6  9  2  0
  6 25  1  0
  7  8  2  0
  8  9  1  0
  8 26  1  0
  9 10  1  0
 11 12  1  0
 11 27  1  0
 12 13  2  0
 12 21  1  0
 13 14  1  0
 13 18  1  0
 14 15  2  0
 14 28  1  0
 15 16  1  0
 15 29  1  0
 16 17  2  0
 16 30  1  0
 17 18  1  0
 17 31  1  0
 18 19  2  0
 19 20  1  0
 19 32  1  0
 20 21  2  0
 21 33  1  0
M  END
$$$$
