LIG(A-306)
     RDKit          3D

 36 38  0  0  0  0  0  0  0  0999 V2000
   14.0384   -1.4614   21.6313 Cl  0  0  0  0  0  0  0  0  0  0  0  0
   12.7615   -0.7502   22.5799 C   0  0  0  0  0  0  0  0  0  0  0  0
   13.0796    0.1768   23.5537 C   0  0  0  0  0  0  0  0  0  0  0  0
   12.0623    0.6778   24.3502 C   0  0  0  0  0  0  0  0  0  0  0  0
   10.7499    0.2800   24.1405 C   0  0  0  0  0  0  0  0  0  0  0  0
   11.4596   -1.1569   22.3606 C   0  0  0  0  0  0  0  0  0  0  0  0
   10.4321   -0.6259   23.1342 C   0  0  0  0  0  0  0  0  0  0  0  0
    8.9920   -0.9647   22.8227 C   0  0  1  0  0  0  0  0  0  0  0  0
    8.4226   -0.0916   21.7213 C   0  0  0  0  0  0  0  0  0  0  0  0
    8.9651    0.9598   21.3736 O   0  0  0  0  0  0  0  0  0  0  0  0
    7.2979   -0.5717   21.1574 N   0  0  0  0  0  0  0  0  0  0  0  0
    6.6300   -0.0771   20.0198 C   0  0  0  0  0  0  0  0  0  0  0  0
    7.0836   -0.2600   18.7134 C   0  0  0  0  0  0  0  0  0  0  0  0
    6.5148    0.2711   17.6229 N   0  0  0  0  0  0  0  0  0  0  0  0
    5.4512    1.0423   17.7988 C   0  0  0  0  0  0  0  0  0  0  0  0
    4.8763    1.3310   19.0602 C   0  0  0  0  0  0  0  0  0  0  0  0
    5.4686    0.7323   20.2078 C   0  0  0  0  0  0  0  0  0  0  0  0
    4.8718    0.9721   21.4723 C   0  0  0  0  0  0  0  0  0  0  0  0
    3.7686    1.7672   21.5912 C   0  0  0  0  0  0  0  0  0  0  0  0
    3.7490    2.1663   19.2259 C   0  0  0  0  0  0  0  0  0  0  0  0
    3.1956    2.3802   20.4645 C   0  0  0  0  0  0  0  0  0  0  0  0
    1.9843    3.2441   20.5955 C   0  0  0  0  0  0  0  0  0  0  0  0
    1.6001    3.9646   19.6700 O   0  0  0  0  0  0  0  0  0  0  0  0
    1.3510    3.1466   21.7333 O   0  0  0  0  0  0  0  0  0  0  0  0
   14.0996    0.5041   23.6912 H   0  0  0  0  0  0  0  0  0  0  0  0
   12.2920    1.3807   25.1373 H   0  0  0  0  0  0  0  0  0  0  0  0
    9.9652    0.6786   24.7664 H   0  0  0  0  0  0  0  0  0  0  0  0
   11.2402   -1.8835   21.5922 H   0  0  0  0  0  0  0  0  0  0  0  0
    8.9363   -2.0165   22.5052 H   0  0  0  0  0  0  0  0  0  0  0  0
    8.3903   -0.8242   23.7327 H   0  0  0  0  0  0  0  0  0  0  0  0
    6.8897   -1.3719   21.5969 H   0  0  0  0  0  0  0  0  0  0  0  0
    7.9590   -0.8760   18.5704 H   0  0  0  0  0  0  0  0  0  0  0  0
    4.9934    1.4788   16.9234 H   0  0  0  0  0  0  0  0  0  0  0  0
    5.2972    0.5182   22.3551 H   0  0  0  0  0  0  0  0  0  0  0  0
    3.3302    1.9272   22.5651 H   0  0  0  0  0  0  0  0  0  0  0  0
    3.3140    2.6460   18.3616 H   0  0  0  0  0  0  0  0  0  0  0  0
  1  2  1  0
  2  3  2  0
  2  6  1  0
  3  4  1  0
  3 25  1  0
  4  5  2  0
  4 26  1  0
  5  7  1  0
  5 27  1  0
  6  7  2  0
  6 28  1  0
  7  8  1  0
  8  9  1  0
  8 29  1  6
  8 30  1  0
  9 10  2  0
  9 11  1  0
 11 12  1  0
 11 31  1  0
 12 13  2  0
 12 17  1  0
 13 14  1  0
 13 32  1  0
 14 15  2  0
 15 16  1  0
 15 33  1  0
 16 17  2  0
 16 20  1  0
 17 18  1  0
 18 19  2  0
 18 34  1  0
 19 21  1  0
 19 35  1  0
 20 21  2  0
 20 36  1  0
 21 22  1  0
 22 23  2  0
 22 24  1  0
M  CHG  1  24  -1
M  END
$$$$
