LIG(A-306)
     RDKit          3D

 53 56  0  0  1  0  0  0  0  0999 V2000
    9.2693    1.3415   21.3643 O   0  0  0  0  0  0  0  0  0  0  0  0
    8.9235    0.2023   21.6573 C   0  0  0  0  0  0  0  0  0  0  0  0
    8.0915   -0.4722   20.8437 N   0  0  0  0  0  0  0  0  0  0  0  0
    7.0609   -0.0886   19.9645 C   0  0  0  0  0  0  0  0  0  0  0  0
    6.0349    0.8279   20.3622 C   0  0  0  0  0  0  0  0  0  0  0  0
    5.6994    1.0956   21.7157 C   0  0  0  0  0  0  0  0  0  0  0  0
    4.6002    1.8437   22.0359 C   0  0  0  0  0  0  0  0  0  0  0  0
    3.7906    2.3742   21.0405 C   0  0  0  0  0  0  0  0  0  0  0  0
    4.0818    2.1665   19.7226 C   0  0  0  0  0  0  0  0  0  0  0  0
    5.2063    1.3891   19.3476 C   0  0  0  0  0  0  0  0  0  0  0  0
    5.4906    1.0533   18.0047 C   0  0  0  0  0  0  0  0  0  0  0  0
    6.4445    0.2175   17.6337 N   0  0  0  0  0  0  0  0  0  0  0  0
    7.1790   -0.3461   18.5985 C   0  0  0  0  0  0  0  0  0  0  0  0
    9.5477   -0.5329   22.8731 C   0  0  1  0  0  0  0  0  0  0  0  0
   11.0369   -0.1909   22.9023 C   0  0  0  0  0  0  0  0  0  0  0  0
   11.9177   -0.8793   22.0731 C   0  0  0  0  0  0  0  0  0  0  0  0
   13.2487   -0.5137   22.0416 C   0  0  0  0  0  0  0  0  0  0  0  0
   14.3017   -1.2897   20.8908 Cl  0  0  0  0  0  0  0  0  0  0  0  0
   13.7501    0.4896   22.8456 C   0  0  0  0  0  0  0  0  0  0  0  0
   12.8975    1.1589   23.7049 C   0  0  0  0  0  0  0  0  0  0  0  0
   11.5502    0.8292   23.7192 C   0  0  0  0  0  0  0  0  0  0  0  0
   10.7664    1.6213   24.5238 O   0  0  0  0  0  0  0  0  0  0  0  0
    9.3321    1.4407   24.4477 C   0  0  1  0  0  0  0  0  0  0  0  0
    8.9197    0.0101   24.1761 C   0  0  2  0  0  0  0  0  0  0  0  0
    9.3800   -2.0703   22.8280 C   0  0  1  0  0  0  0  0  0  0  0  0
    8.0784   -2.4681   23.2381 O   0  0  0  0  0  0  0  0  0  0  0  0
    8.0999   -3.6115   24.0796 C   0  0  1  0  0  0  0  0  0  0  0  0
    7.3941   -4.8145   23.4925 C   0  0  0  0  0  0  0  0  0  0  0  0
    7.9954   -5.8838   23.4083 O   0  0  0  0  0  0  0  0  0  0  0  0
    6.1125   -4.6944   23.1640 N   0  0  0  0  0  0  0  0  0  0  0  0
    5.2468   -5.8455   22.9667 C   0  0  1  0  0  0  0  0  0  0  0  0
    8.2364   -1.4613   20.8688 H   0  0  0  0  0  0  0  0  0  0  0  0
    6.3224    0.7019   22.5052 H   0  0  0  0  0  0  0  0  0  0  0  0
    4.3596    2.0236   23.0732 H   0  0  0  0  0  0  0  0  0  0  0  0
    2.9223    2.9566   21.3110 H   0  0  0  0  0  0  0  0  0  0  0  0
    3.4504    2.5979   18.9600 H   0  0  0  0  0  0  0  0  0  0  0  0
    4.8896    1.5092   17.2319 H   0  0  0  0  0  0  0  0  0  0  0  0
    7.9281   -1.0620   18.2940 H   0  0  0  0  0  0  0  0  0  0  0  0
   11.5626   -1.6935   21.4588 H   0  0  0  0  0  0  0  0  0  0  0  0
   14.7975    0.7496   22.8044 H   0  0  0  0  0  0  0  0  0  0  0  0
   13.2771    1.9306   24.3582 H   0  0  0  0  0  0  0  0  0  0  0  0
    8.8899    1.7554   25.4045 H   0  0  0  0  0  0  0  0  0  0  0  0
    8.9433    2.0754   23.6377 H   0  0  0  0  0  0  0  0  0  0  0  0
    9.2452   -0.6197   25.0171 H   0  0  0  0  0  0  0  0  0  0  0  0
    7.8241   -0.0335   24.0879 H   0  0  0  0  0  0  0  0  0  0  0  0
    9.5515   -2.4178   21.7985 H   0  0  0  0  0  0  0  0  0  0  0  0
   10.1212   -2.5298   23.4984 H   0  0  0  0  0  0  0  0  0  0  0  0
    9.1489   -3.8831   24.2692 H   0  0  0  0  0  0  0  0  0  0  0  0
    7.6108   -3.3520   25.0301 H   0  0  0  0  0  0  0  0  0  0  0  0
    5.7290   -3.7781   23.0482 H   0  0  0  0  0  0  0  0  0  0  0  0
    4.2354   -5.5033   22.7025 H   0  0  0  0  0  0  0  0  0  0  0  0
    5.6466   -6.4697   22.1538 H   0  0  0  0  0  0  0  0  0  0  0  0
    5.2037   -6.4350   23.8944 H   0  0  0  0  0  0  0  0  0  0  0  0
  1  2  2  0
  2  3  1  0
 14  2  1  6
  3  4  1  0
  3 32  1  0
  4  5  2  0
  4 13  1  0
  5  6  1  0
  5 10  1  0
  6  7  2  0
  6 33  1  0
  7  8  1  0
  7 34  1  0
  8  9  2  0
  8 35  1  0
  9 10  1  0
  9 36  1  0
 10 11  2  0
 11 12  1  0
 11 37  1  0
 12 13  2  0
 13 38  1  0
 14 15  1  0
 14 24  1  0
 14 25  1  0
 15 16  2  0
 15 21  1  0
 16 17  1  0
 16 39  1  0
 17 18  1  0
 17 19  2  0
 19 20  1  0
 19 40  1  0
 20 21  2  0
 20 41  1  0
 21 22  1  0
 22 23  1  0
 23 24  1  0
 23 42  1  1
 23 43  1  0
 24 44  1  1
 24 45  1  0
 25 26  1  0
 25 46  1  6
 25 47  1  0
 26 27  1  0
 27 28  1  0
 27 48  1  1
 27 49  1  0
 28 29  2  0
 28 30  1  0
 30 31  1  0
 30 50  1  0
 31 51  1  6
 31 52  1  0
 31 53  1  0
M  END
$$$$
