LIG(A-306)
     RDKit          3D

 41 43  0  0  0  0  0  0  0  0999 V2000
   14.1545   -1.5296   21.5927 Cl  0  0  0  0  0  0  0  0  0  0  0  0
   12.9294   -0.7970   22.5858 C   0  0  0  0  0  0  0  0  0  0  0  0
   13.2962    0.1442   23.5278 C   0  0  0  0  0  0  0  0  0  0  0  0
   12.3051    0.7328   24.2959 C   0  0  0  0  0  0  0  0  0  0  0  0
   10.9742    0.3974   24.0930 C   0  0  0  0  0  0  0  0  0  0  0  0
   11.6105   -1.1504   22.3840 C   0  0  0  0  0  0  0  0  0  0  0  0
   10.6113   -0.5277   23.1231 C   0  0  0  0  0  0  0  0  0  0  0  0
    9.1604   -0.7821   22.7942 C   0  0  1  0  0  0  0  0  0  0  0  0
    8.7170   -0.0482   21.5443 C   0  0  0  0  0  0  0  0  0  0  0  0
    9.1407    1.0739   21.2663 O   0  0  0  0  0  0  0  0  0  0  0  0
    7.7721   -0.6935   20.8234 N   0  0  0  0  0  0  0  0  0  0  0  0
    6.9029   -0.1568   19.8535 C   0  0  0  0  0  0  0  0  0  0  0  0
    7.1367   -0.1837   18.4785 C   0  0  0  0  0  0  0  0  0  0  0  0
    6.3964    0.4481   17.5576 N   0  0  0  0  0  0  0  0  0  0  0  0
    5.3553    1.1468   17.9837 C   0  0  0  0  0  0  0  0  0  0  0  0
    4.9664    1.2467   19.3397 C   0  0  0  0  0  0  0  0  0  0  0  0
    5.7617    0.5689   20.3086 C   0  0  0  0  0  0  0  0  0  0  0  0
    5.3518    0.6118   21.6637 C   0  0  0  0  0  0  0  0  0  0  0  0
    4.2107    1.2554   22.0328 C   0  0  0  0  0  0  0  0  0  0  0  0
    3.7972    1.9273   19.7589 C   0  0  0  0  0  0  0  0  0  0  0  0
    3.4254    1.8892   21.0789 C   0  0  0  0  0  0  0  0  0  0  0  0
    2.1603    2.3908   21.4811 O   0  0  0  0  0  0  0  0  0  0  0  0
    1.8348    3.9557   21.3561 S   0  0  2  0  0  0  0  0  0  0  0  0
    1.4406    4.1746   20.0051 O   0  0  0  0  0  0  0  0  0  0  0  0
    2.9466    4.6660   21.8880 O   0  0  0  0  0  0  0  0  0  0  0  0
    0.4568    4.1473   22.4093 C   0  0  1  0  0  0  0  0  0  0  0  0
   14.3329    0.4152   23.6626 H   0  0  0  0  0  0  0  0  0  0  0  0
   12.5691    1.4547   25.0546 H   0  0  0  0  0  0  0  0  0  0  0  0
   10.2097    0.8623   24.6979 H   0  0  0  0  0  0  0  0  0  0  0  0
   11.3562   -1.9064   21.6559 H   0  0  0  0  0  0  0  0  0  0  0  0
    9.0165   -1.8617   22.6404 H   0  0  0  0  0  0  0  0  0  0  0  0
    8.5419   -0.4465   23.6397 H   0  0  0  0  0  0  0  0  0  0  0  0
    7.6790   -1.6732   21.0009 H   0  0  0  0  0  0  0  0  0  0  0  0
    7.9811   -0.7591   18.1287 H   0  0  0  0  0  0  0  0  0  0  0  0
    4.7653    1.6741   17.2486 H   0  0  0  0  0  0  0  0  0  0  0  0
    5.9547    0.1257   22.4165 H   0  0  0  0  0  0  0  0  0  0  0  0
    3.9149    1.2732   23.0713 H   0  0  0  0  0  0  0  0  0  0  0  0
    3.2013    2.4737   19.0428 H   0  0  0  0  0  0  0  0  0  0  0  0
    0.1361    5.1995   22.4066 H   0  0  0  0  0  0  0  0  0  0  0  0
   -0.3676    3.5119   22.0534 H   0  0  0  0  0  0  0  0  0  0  0  0
    0.7332    3.8508   23.4319 H   0  0  0  0  0  0  0  0  0  0  0  0
  1  2  1  0
  2  3  2  0
  2  6  1  0
  3  4  1  0
  3 27  1  0
  4  5  2  0
  4 28  1  0
  5  7  1  0
  5 29  1  0
  6  7  2  0
  6 30  1  0
  7  8  1  0
  8  9  1  0
  8 31  1  6
  8 32  1  0
  9 10  2  0
  9 11  1  0
 11 12  1  0
 11 33  1  0
 12 13  2  0
 12 17  1  0
 13 14  1  0
 13 34  1  0
 14 15  2  0
 15 16  1  0
 15 35  1  0
 16 17  2  0
 16 20  1  0
 17 18  1  0
 18 19  2  0
 18 36  1  0
 19 21  1  0
 19 37  1  0
 20 21  2  0
 20 38  1  0
 21 22  1  0
 23 22  1  6
 23 24  2  0
 23 25  2  0
 23 26  1  0
 26 39  1  1
 26 40  1  0
 26 41  1  0
M  END
$$$$
