LIG(A-307)
     RDKit          3D

 38 41  0  0  1  0  0  0  0  0999 V2000
   -9.8782    0.8138  -20.9108 O   0  0  0  0  0  0  0  0  0  0  0  0
   -9.2896   -0.1261  -21.4445 C   0  0  0  0  0  0  0  0  0  0  0  0
   -9.8817   -0.8940  -22.6279 C   0  0  1  0  0  0  0  0  0  0  0  0
  -11.3810   -0.6744  -22.6550 C   0  0  0  0  0  0  0  0  0  0  0  0
  -12.2256   -1.3823  -21.8025 C   0  0  0  0  0  0  0  0  0  0  0  0
   -9.2568   -0.4476  -23.9629 C   0  0  1  0  0  0  0  0  0  0  0  0
   -9.7879    0.9066  -24.3495 C   0  0  1  0  0  0  0  0  0  0  0  0
  -11.2314    0.9227  -24.4977 O   0  0  0  0  0  0  0  0  0  0  0  0
  -11.9600    0.2199  -23.5669 C   0  0  0  0  0  0  0  0  0  0  0  0
  -13.3337    0.4131  -23.6152 C   0  0  0  0  0  0  0  0  0  0  0  0
  -14.1542   -0.2939  -22.7541 C   0  0  0  0  0  0  0  0  0  0  0  0
  -13.5896   -1.1850  -21.8640 C   0  0  0  0  0  0  0  0  0  0  0  0
  -14.6194   -2.0638  -20.7668 Cl  0  0  0  0  0  0  0  0  0  0  0  0
   -8.0211   -0.4514  -21.1413 N   0  0  0  0  0  0  0  0  0  0  0  0
   -7.2775   -0.1525  -19.9927 C   0  0  0  0  0  0  0  0  0  0  0  0
   -7.7269   -0.2413  -18.6755 C   0  0  0  0  0  0  0  0  0  0  0  0
   -7.1281    0.2957  -17.6031 N   0  0  0  0  0  0  0  0  0  0  0  0
   -6.0319    0.9998  -17.8108 C   0  0  0  0  0  0  0  0  0  0  0  0
   -5.4735    1.2359  -19.0881 C   0  0  0  0  0  0  0  0  0  0  0  0
   -6.0998    0.6270  -20.2109 C   0  0  0  0  0  0  0  0  0  0  0  0
   -4.3977    2.1196  -19.3448 C   0  0  0  0  0  0  0  0  0  0  0  0
   -3.9598    2.4218  -20.5645 N   0  0  0  0  0  0  0  0  0  0  0  0
   -4.5634    1.8321  -21.6070 C   0  0  0  0  0  0  0  0  0  0  0  0
   -5.5964    0.9493  -21.4969 C   0  0  0  0  0  0  0  0  0  0  0  0
   -9.6813   -1.9666  -22.4884 H   0  0  0  0  0  0  0  0  0  0  0  0
  -11.8127   -2.0851  -21.0939 H   0  0  0  0  0  0  0  0  0  0  0  0
   -8.1636   -0.3931  -23.8537 H   0  0  0  0  0  0  0  0  0  0  0  0
   -9.5112   -1.1765  -24.7464 H   0  0  0  0  0  0  0  0  0  0  0  0
   -9.5064    1.6301  -23.5703 H   0  0  0  0  0  0  0  0  0  0  0  0
   -9.3329    1.2025  -25.3063 H   0  0  0  0  0  0  0  0  0  0  0  0
  -13.7596    1.1111  -24.3208 H   0  0  0  0  0  0  0  0  0  0  0  0
  -15.2243   -0.1501  -22.7781 H   0  0  0  0  0  0  0  0  0  0  0  0
   -7.5384   -0.9839  -21.8366 H   0  0  0  0  0  0  0  0  0  0  0  0
   -8.6397   -0.7925  -18.5039 H   0  0  0  0  0  0  0  0  0  0  0  0
   -5.5301    1.4218  -16.9526 H   0  0  0  0  0  0  0  0  0  0  0  0
   -3.9028    2.5757  -18.5001 H   0  0  0  0  0  0  0  0  0  0  0  0
   -4.2081    2.0723  -22.5981 H   0  0  0  0  0  0  0  0  0  0  0  0
   -6.0267    0.5000  -22.3797 H   0  0  0  0  0  0  0  0  0  0  0  0
  1  2  2  0
  2  3  1  0
  2 14  1  0
  3  4  1  0
  3  6  1  0
  3 25  1  1
  4  5  2  0
  4  9  1  0
  5 12  1  0
  5 26  1  0
  6  7  1  0
  6 27  1  1
  6 28  1  0
  7  8  1  0
  7 29  1  1
  7 30  1  0
  8  9  1  0
  9 10  2  0
 10 11  1  0
 10 31  1  0
 11 12  2  0
 11 32  1  0
 12 13  1  0
 14 15  1  0
 14 33  1  0
 15 16  2  0
 15 20  1  0
 16 17  1  0
 16 34  1  0
 17 18  2  0
 18 19  1  0
 18 35  1  0
 19 20  2  0
 19 21  1  0
 20 24  1  0
 21 22  2  0
 21 36  1  0
 22 23  1  0
 23 24  2  0
 23 37  1  0
 24 38  1  0
M  END
$$$$
