LIG(A-305)
     RDKit          3D

 35 37  0  0  0  0  0  0  0  0999 V2000
   -0.7288   29.8930   -9.0409 C   0  0  0  0  0  0  0  0  0  0  0  0
   -2.6085   31.1842   -8.0117 C   0  0  1  0  0  0  0  0  0  0  0  0
   -3.1825   32.4613   -8.6227 C   0  0  1  0  0  0  0  0  0  0  0  0
   -2.3064   33.6962   -8.4038 C   0  0  1  0  0  0  0  0  0  0  0  0
   -1.0374   33.6801   -9.2579 C   0  0  1  0  0  0  0  0  0  0  0  0
    0.1886   33.1329   -8.5371 C   0  0  1  0  0  0  0  0  0  0  0  0
   -0.1384   31.8990   -7.7140 C   0  0  1  0  0  0  0  0  0  0  0  0
   -1.7069   28.8591   -9.5958 C   0  0  0  0  0  0  0  0  0  0  0  0
   -2.1941   28.8751  -10.8868 C   0  0  0  0  0  0  0  0  0  0  0  0
   -3.0782   27.8882  -11.3227 C   0  0  0  0  0  0  0  0  0  0  0  0
   -3.4842   26.8563  -10.4566 C   0  0  0  0  0  0  0  0  0  0  0  0
   -4.5092   25.1614   -9.3935 C   0  0  1  0  0  0  0  0  0  0  0  0
   -3.0091   26.8352   -9.1847 C   0  0  0  0  0  0  0  0  0  0  0  0
   -2.1089   27.8422   -8.7458 C   0  0  0  0  0  0  0  0  0  0  0  0
   -1.1816   31.0231   -8.2379 N   0  0  0  0  0  0  0  0  0  0  0  0
    0.4332   29.7299   -9.2351 O   0  0  0  0  0  0  0  0  0  0  0  0
   -4.3543   25.7623  -10.6455 O   0  0  0  0  0  0  0  0  0  0  0  0
   -3.5681   25.7243   -8.5166 O   0  0  0  0  0  0  0  0  0  0  0  0
   -2.7887   31.2059   -6.9268 H   0  0  0  0  0  0  0  0  0  0  0  0
   -3.1304   30.3222   -8.4530 H   0  0  0  0  0  0  0  0  0  0  0  0
   -3.2993   32.3061   -9.7054 H   0  0  0  0  0  0  0  0  0  0  0  0
   -4.1675   32.6499   -8.1709 H   0  0  0  0  0  0  0  0  0  0  0  0
   -2.8911   34.5921   -8.6595 H   0  0  0  0  0  0  0  0  0  0  0  0
   -2.0161   33.7381   -7.3436 H   0  0  0  0  0  0  0  0  0  0  0  0
   -1.2249   33.0557  -10.1439 H   0  0  0  0  0  0  0  0  0  0  0  0
   -0.8209   34.7108   -9.5750 H   0  0  0  0  0  0  0  0  0  0  0  0
    0.9517   32.8695   -9.2842 H   0  0  0  0  0  0  0  0  0  0  0  0
    0.5839   33.9114   -7.8680 H   0  0  0  0  0  0  0  0  0  0  0  0
    0.7825   31.3043   -7.6233 H   0  0  0  0  0  0  0  0  0  0  0  0
   -0.4562   32.2373   -6.7167 H   0  0  0  0  0  0  0  0  0  0  0  0
   -1.8884   29.6580  -11.5650 H   0  0  0  0  0  0  0  0  0  0  0  0
   -3.4547   27.9164  -12.3345 H   0  0  0  0  0  0  0  0  0  0  0  0
   -5.5260   25.3446   -9.0159 H   0  0  0  0  0  0  0  0  0  0  0  0
   -4.3388   24.0779   -9.4770 H   0  0  0  0  0  0  0  0  0  0  0  0
   -1.7322   27.8145   -7.7340 H   0  0  0  0  0  0  0  0  0  0  0  0
  1  8  1  0
  1 15  1  0
  1 16  2  0
  2  3  1  0
  2 15  1  0
  2 19  1  1
  2 20  1  0
  3  4  1  0
  3 21  1  6
  3 22  1  0
  4  5  1  0
  4 23  1  6
  4 24  1  0
  5  6  1  0
  5 25  1  6
  5 26  1  0
  6  7  1  0
  6 27  1  6
  6 28  1  0
  7 15  1  0
  7 29  1  1
  7 30  1  0
  8  9  2  0
  8 14  1  0
  9 10  1  0
  9 31  1  0
 10 11  2  0
 10 32  1  0
 11 13  1  0
 11 17  1  0
 12 17  1  0
 12 18  1  0
 12 33  1  1
 12 34  1  0
 13 14  2  0
 13 18  1  0
 14 35  1  0
M  END
$$$$
