LIG(A-306)
     RDKit          3D

 53 57  0  0  1  0  0  0  0  0999 V2000
    9.0632    1.2368   21.3350 O   0  0  0  0  0  0  0  0  0  0  0  0
    8.6161    0.1548   21.7129 C   0  0  0  0  0  0  0  0  0  0  0  0
    7.5367   -0.4330   21.1504 N   0  0  0  0  0  0  0  0  0  0  0  0
    6.7524    0.0586   20.0887 C   0  0  0  0  0  0  0  0  0  0  0  0
    5.5907    0.8327   20.4038 C   0  0  0  0  0  0  0  0  0  0  0  0
    5.1010    1.0210   21.7236 C   0  0  0  0  0  0  0  0  0  0  0  0
    3.9971    1.7933   21.9592 C   0  0  0  0  0  0  0  0  0  0  0  0
    3.3341    2.4179   20.9111 C   0  0  0  0  0  0  0  0  0  0  0  0
    3.7604    2.2594   19.6227 C   0  0  0  0  0  0  0  0  0  0  0  0
    4.8910    1.4541   19.3314 C   0  0  0  0  0  0  0  0  0  0  0  0
    5.3708    1.2364   18.0145 C   0  0  0  0  0  0  0  0  0  0  0  0
    6.4320    0.4977   17.7213 N   0  0  0  0  0  0  0  0  0  0  0  0
    7.0970   -0.0647   18.7413 C   0  0  0  0  0  0  0  0  0  0  0  0
    9.2138   -0.6085   22.8961 C   0  0  1  0  0  0  0  0  0  0  0  0
   10.6921   -0.2956   22.9753 C   0  0  0  0  0  0  0  0  0  0  0  0
   11.1440    0.8230   23.6860 C   0  0  0  0  0  0  0  0  0  0  0  0
   12.5024    1.1499   23.6835 C   0  0  0  0  0  0  0  0  0  0  0  0
   13.4084    0.3641   22.9943 C   0  0  0  0  0  0  0  0  0  0  0  0
   11.6175   -1.0989   22.3129 C   0  0  0  0  0  0  0  0  0  0  0  0
   12.9550   -0.7540   22.3277 C   0  0  0  0  0  0  0  0  0  0  0  0
   14.0908   -1.7386   21.4472 Cl  0  0  0  0  0  0  0  0  0  0  0  0
    8.5299   -0.1884   24.1963 C   0  0  1  0  0  0  0  0  0  0  0  0
    8.9119    1.1739   24.5818 N   0  0  0  0  0  0  0  0  0  0  0  0
   10.2094    1.6288   24.4913 C   0  0  0  0  0  0  0  0  0  0  0  0
   10.5553    2.6834   24.9930 O   0  0  0  0  0  0  0  0  0  0  0  0
    8.0028    1.7903   25.5319 C   0  0  1  0  0  0  0  0  0  0  0  0
    7.4384    3.1511   25.1511 C   0  0  0  0  0  0  0  0  0  0  0  0
    6.7246    3.7699   25.9389 O   0  0  0  0  0  0  0  0  0  0  0  0
    7.7871    3.6378   23.9521 N   0  0  0  0  0  0  0  0  0  0  0  0
    6.8201    4.0018   22.9160 C   0  0  2  0  0  0  0  0  0  0  0  0
    7.0613    5.2295   22.1220 C   0  0  1  0  0  0  0  0  0  0  0  0
    5.9666    5.1955   23.1256 C   0  0  1  0  0  0  0  0  0  0  0  0
    7.2642   -1.3167   21.5310 H   0  0  0  0  0  0  0  0  0  0  0  0
    5.6071    0.5481   22.5522 H   0  0  0  0  0  0  0  0  0  0  0  0
    3.6377    1.9186   22.9699 H   0  0  0  0  0  0  0  0  0  0  0  0
    2.4722    3.0354   21.1165 H   0  0  0  0  0  0  0  0  0  0  0  0
    3.2321    2.7514   18.8194 H   0  0  0  0  0  0  0  0  0  0  0  0
    4.8378    1.7020   17.1987 H   0  0  0  0  0  0  0  0  0  0  0  0
    7.9664   -0.6589   18.5018 H   0  0  0  0  0  0  0  0  0  0  0  0
    9.0733   -1.6885   22.7420 H   0  0  0  0  0  0  0  0  0  0  0  0
   12.8467    2.0203   24.2223 H   0  0  0  0  0  0  0  0  0  0  0  0
   14.4567    0.6231   22.9787 H   0  0  0  0  0  0  0  0  0  0  0  0
   11.2911   -1.9861   21.7907 H   0  0  0  0  0  0  0  0  0  0  0  0
    7.4395   -0.2292   24.0573 H   0  0  0  0  0  0  0  0  0  0  0  0
    8.8238   -0.8833   24.9967 H   0  0  0  0  0  0  0  0  0  0  0  0
    7.1541    1.1052   25.6744 H   0  0  0  0  0  0  0  0  0  0  0  0
    8.5430    1.9075   26.4828 H   0  0  0  0  0  0  0  0  0  0  0  0
    8.7600    3.7586   23.7549 H   0  0  0  0  0  0  0  0  0  0  0  0
    6.3507    3.1665   22.3757 H   0  0  0  0  0  0  0  0  0  0  0  0
    7.9592    5.8372   22.3077 H   0  0  0  0  0  0  0  0  0  0  0  0
    6.8230    5.2459   21.0483 H   0  0  0  0  0  0  0  0  0  0  0  0
    4.9174    5.1867   22.7953 H   0  0  0  0  0  0  0  0  0  0  0  0
    6.0536    5.7779   24.0547 H   0  0  0  0  0  0  0  0  0  0  0  0
  1  2  2  0
  2  3  1  0
  2 14  1  0
  3  4  1  0
  3 33  1  0
  4  5  2  0
  4 13  1  0
  5  6  1  0
  5 10  1  0
  6  7  2  0
  6 34  1  0
  7  8  1  0
  7 35  1  0
  8  9  2  0
  8 36  1  0
  9 10  1  0
  9 37  1  0
 10 11  2  0
 11 12  1  0
 11 38  1  0
 12 13  2  0
 13 39  1  0
 14 15  1  0
 14 22  1  0
 14 40  1  6
 15 16  2  0
 15 19  1  0
 16 17  1  0
 16 24  1  0
 17 18  2  0
 17 41  1  0
 18 20  1  0
 18 42  1  0
 19 20  2  0
 19 43  1  0
 20 21  1  0
 22 23  1  0
 22 44  1  6
 22 45  1  0
 23 24  1  0
 23 26  1  0
 24 25  2  0
 26 27  1  0
 26 46  1  1
 26 47  1  0
 27 28  2  0
 27 29  1  0
 29 30  1  0
 29 48  1  0
 30 31  1  0
 30 32  1  0
 30 49  1  6
 31 32  1  0
 31 50  1  1
 31 51  1  0
 32 52  1  6
 32 53  1  0
M  END
$$$$
