LIG(A-306)
     RDKit          3D

 58 62  0  0  1  0  0  0  0  0999 V2000
   14.1118   -1.5338   21.3470 Cl  0  0  0  0  0  0  0  0  0  0  0  0
   12.9014   -0.8084   22.3658 C   0  0  0  0  0  0  0  0  0  0  0  0
   11.5822   -1.2013   22.2308 C   0  0  0  0  0  0  0  0  0  0  0  0
   13.2741    0.1657   23.2603 C   0  0  0  0  0  0  0  0  0  0  0  0
   12.3073    0.7506   24.0536 C   0  0  0  0  0  0  0  0  0  0  0  0
   10.9643    0.3941   23.9387 C   0  0  0  0  0  0  0  0  0  0  0  0
    9.9769    1.0910   24.8505 C   0  0  1  0  0  0  0  0  0  0  0  0
    8.5826    0.6848   24.6343 N   0  0  0  0  0  0  0  0  0  0  0  0
    7.3082    1.5415   25.0766 S   0  0  2  0  0  0  0  0  0  0  0  0
    7.3257    1.6446   26.4938 O   0  0  0  0  0  0  0  0  0  0  0  0
    6.1716    1.0180   24.3965 O   0  0  0  0  0  0  0  0  0  0  0  0
    7.7108    2.9747   24.4896 N   0  0  0  0  0  0  0  0  0  0  0  0
    7.7932    4.1793   25.3442 C   0  0  1  0  0  0  0  0  0  0  0  0
    7.1653    5.2918   24.5063 C   0  0  1  0  0  0  0  0  0  0  0  0
    7.3909    3.3866   23.1061 C   0  0  1  0  0  0  0  0  0  0  0  0
    6.4527    4.5610   23.3452 C   0  0  2  0  0  0  0  0  0  0  0  0
    6.2332    5.4242   22.1091 C   0  0  1  0  0  0  0  0  0  0  0  0
   10.5959   -0.5808   22.9992 C   0  0  0  0  0  0  0  0  0  0  0  0
    9.1300   -0.9098   22.7929 C   0  0  1  0  0  0  0  0  0  0  0  0
    8.3541   -0.6655   24.0842 C   0  0  2  0  0  0  0  0  0  0  0  0
    8.5535   -0.0866   21.6377 C   0  0  0  0  0  0  0  0  0  0  0  0
    9.0680    0.9691   21.2669 O   0  0  0  0  0  0  0  0  0  0  0  0
    7.4384   -0.6096   21.0677 N   0  0  0  0  0  0  0  0  0  0  0  0
    6.6871   -0.0735   19.9970 C   0  0  0  0  0  0  0  0  0  0  0  0
    5.5605    0.7594   20.2957 C   0  0  0  0  0  0  0  0  0  0  0  0
    5.0715    0.9869   21.6080 C   0  0  0  0  0  0  0  0  0  0  0  0
    3.9774    1.7753   21.8259 C   0  0  0  0  0  0  0  0  0  0  0  0
    3.3246    2.3900   20.7619 C   0  0  0  0  0  0  0  0  0  0  0  0
    3.7594    2.2089   19.4812 C   0  0  0  0  0  0  0  0  0  0  0  0
    4.8776    1.3802   19.2094 C   0  0  0  0  0  0  0  0  0  0  0  0
    5.3386    1.1064   17.8969 C   0  0  0  0  0  0  0  0  0  0  0  0
    6.3738    0.3230   17.6195 N   0  0  0  0  0  0  0  0  0  0  0  0
    7.0204   -0.2386   18.6503 C   0  0  0  0  0  0  0  0  0  0  0  0
   11.3167   -1.9836   21.5350 H   0  0  0  0  0  0  0  0  0  0  0  0
   14.3075    0.4691   23.3416 H   0  0  0  0  0  0  0  0  0  0  0  0
   12.5968    1.4985   24.7769 H   0  0  0  0  0  0  0  0  0  0  0  0
   10.2469    0.8639   25.8923 H   0  0  0  0  0  0  0  0  0  0  0  0
   10.0528    2.1750   24.6801 H   0  0  0  0  0  0  0  0  0  0  0  0
    7.2305    4.0321   26.2779 H   0  0  0  0  0  0  0  0  0  0  0  0
    8.8410    4.4162   25.5810 H   0  0  0  0  0  0  0  0  0  0  0  0
    6.4420    5.8656   25.1043 H   0  0  0  0  0  0  0  0  0  0  0  0
    7.9405    5.9695   24.1193 H   0  0  0  0  0  0  0  0  0  0  0  0
    8.2941    3.6990   22.5613 H   0  0  0  0  0  0  0  0  0  0  0  0
    6.8899    2.5789   22.5526 H   0  0  0  0  0  0  0  0  0  0  0  0
    5.4826    4.1841   23.7015 H   0  0  0  0  0  0  0  0  0  0  0  0
    5.5483    6.2493   22.3544 H   0  0  0  0  0  0  0  0  0  0  0  0
    7.1966    5.8351   21.7733 H   0  0  0  0  0  0  0  0  0  0  0  0
    5.7963    4.8114   21.3069 H   0  0  0  0  0  0  0  0  0  0  0  0
    9.0449   -1.9755   22.5338 H   0  0  0  0  0  0  0  0  0  0  0  0
    7.2801   -0.7854   23.8784 H   0  0  0  0  0  0  0  0  0  0  0  0
    8.6695   -1.4088   24.8313 H   0  0  0  0  0  0  0  0  0  0  0  0
    7.1104   -1.4738   21.4493 H   0  0  0  0  0  0  0  0  0  0  0  0
    5.5724    0.5293   22.4483 H   0  0  0  0  0  0  0  0  0  0  0  0
    3.6158    1.9228   22.8328 H   0  0  0  0  0  0  0  0  0  0  0  0
    2.4656    3.0164   20.9515 H   0  0  0  0  0  0  0  0  0  0  0  0
    3.2474    2.7009   18.6675 H   0  0  0  0  0  0  0  0  0  0  0  0
    4.8147    1.5640   17.0708 H   0  0  0  0  0  0  0  0  0  0  0  0
    7.8667   -0.8693   18.4216 H   0  0  0  0  0  0  0  0  0  0  0  0
  1  2  1  0
  2  3  2  0
  2  4  1  0
  3 18  1  0
  3 34  1  0
  4  5  2  0
  4 35  1  0
  5  6  1  0
  5 36  1  0
  6  7  1  0
  6 18  2  0
  7  8  1  0
  7 37  1  1
  7 38  1  0
  9  8  1  1
  8 20  1  0
  9 10  2  0
  9 11  2  0
  9 12  1  0
 12 13  1  0
 12 15  1  0
 13 14  1  0
 13 39  1  1
 13 40  1  0
 14 16  1  0
 14 41  1  1
 14 42  1  0
 15 16  1  0
 15 43  1  6
 15 44  1  0
 16 17  1  0
 16 45  1  1
 17 46  1  1
 17 47  1  0
 17 48  1  0
 18 19  1  0
 19 20  1  0
 19 21  1  0
 19 49  1  6
 20 50  1  6
 20 51  1  0
 21 22  2  0
 21 23  1  0
 23 24  1  0
 23 52  1  0
 24 25  2  0
 24 33  1  0
 25 26  1  0
 25 30  1  0
 26 27  2  0
 26 53  1  0
 27 28  1  0
 27 54  1  0
 28 29  2  0
 28 55  1  0
 29 30  1  0
 29 56  1  0
 30 31  2  0
 31 32  1  0
 31 57  1  0
 32 33  2  0
 33 58  1  0
M  END
$$$$
