LIG(A-306)
     RDKit          3D

 64 69  0  0  1  0  0  0  0  0999 V2000
    9.3013    1.2934   20.9606 O   0  0  0  0  0  0  0  0  0  0  0  0
    8.8084    0.3239   21.5193 C   0  0  0  0  0  0  0  0  0  0  0  0
    7.6238   -0.2207   21.1327 N   0  0  0  0  0  0  0  0  0  0  0  0
    6.8151    0.1620   20.0376 C   0  0  0  0  0  0  0  0  0  0  0  0
    5.6601    0.9775   20.2754 C   0  0  0  0  0  0  0  0  0  0  0  0
    5.1761    1.3088   21.5697 C   0  0  0  0  0  0  0  0  0  0  0  0
    4.0852    2.1200   21.7255 C   0  0  0  0  0  0  0  0  0  0  0  0
    3.4242    2.6390   20.6198 C   0  0  0  0  0  0  0  0  0  0  0  0
    3.8441    2.3408   19.3563 C   0  0  0  0  0  0  0  0  0  0  0  0
    4.9661    1.4994   19.1467 C   0  0  0  0  0  0  0  0  0  0  0  0
    5.4412    1.1511   17.8595 C   0  0  0  0  0  0  0  0  0  0  0  0
    6.4870    0.3685   17.6375 N   0  0  0  0  0  0  0  0  0  0  0  0
    7.1429   -0.1048   18.7060 C   0  0  0  0  0  0  0  0  0  0  0  0
    9.5007   -0.3154   22.7476 C   0  0  1  0  0  0  0  0  0  0  0  0
   10.9968    0.0601   22.7590 C   0  0  0  0  0  0  0  0  0  0  0  0
   11.9176   -0.6565   21.9917 C   0  0  0  0  0  0  0  0  0  0  0  0
   13.2508   -0.2844   21.9981 C   0  0  0  0  0  0  0  0  0  0  0  0
   14.3881   -1.1965   21.0358 Cl  0  0  0  0  0  0  0  0  0  0  0  0
   13.7041    0.7923   22.7309 C   0  0  0  0  0  0  0  0  0  0  0  0
   12.8103    1.5041   23.5133 C   0  0  0  0  0  0  0  0  0  0  0  0
   11.4752    1.1291   23.5348 C   0  0  0  0  0  0  0  0  0  0  0  0
   10.6844    1.8286   24.4133 O   0  0  0  0  0  0  0  0  0  0  0  0
    9.2676    1.7730   24.1623 C   0  0  1  0  0  0  0  0  0  0  0  0
    8.7889    0.3528   23.9451 C   0  0  2  0  0  0  0  0  0  0  0  0
    9.3593   -1.8585   22.8021 C   0  0  1  0  0  0  0  0  0  0  0  0
    9.8985   -2.4980   24.0654 C   0  0  0  0  0  0  0  0  0  0  0  0
   10.7261   -1.9556   24.7859 O   0  0  0  0  0  0  0  0  0  0  0  0
    9.4283   -3.7145   24.4043 N   0  0  0  0  0  0  0  0  0  0  0  0
   10.2024   -4.6878   25.1992 C   0  0  1  0  0  0  0  0  0  0  0  0
    9.7927   -4.4936   26.6562 C   0  0  1  0  0  0  0  0  0  0  0  0
    8.0816   -4.2634   24.2407 C   0  0  1  0  0  0  0  0  0  0  0  0
    8.0890   -5.3833   25.2792 C   0  0  1  0  0  0  0  0  0  0  0  0
    9.4485   -5.9919   24.9235 C   0  0  2  0  0  0  0  0  0  0  0  0
    8.3644   -4.8151   26.6165 N   0  0  0  0  0  0  0  0  0  0  0  0
    7.4787   -4.5852   27.6192 C   0  0  0  0  0  0  0  0  0  0  0  0
    7.7811   -4.8368   28.7815 O   0  0  0  0  0  0  0  0  0  0  0  0
    6.1583   -3.9650   27.2619 C   0  0  1  0  0  0  0  0  0  0  0  0
    7.2850   -0.9806   21.6876 H   0  0  0  0  0  0  0  0  0  0  0  0
    5.6761    0.9149   22.4422 H   0  0  0  0  0  0  0  0  0  0  0  0
    3.7346    2.3592   22.7186 H   0  0  0  0  0  0  0  0  0  0  0  0
    2.5701    3.2846   20.7613 H   0  0  0  0  0  0  0  0  0  0  0  0
    3.3166    2.7497   18.5073 H   0  0  0  0  0  0  0  0  0  0  0  0
    4.9173    1.5491   17.0030 H   0  0  0  0  0  0  0  0  0  0  0  0
    7.9939   -0.7441   18.5229 H   0  0  0  0  0  0  0  0  0  0  0  0
   11.5913   -1.4965   21.3965 H   0  0  0  0  0  0  0  0  0  0  0  0
   14.7452    1.0773   22.6950 H   0  0  0  0  0  0  0  0  0  0  0  0
   13.1499    2.3438   24.1014 H   0  0  0  0  0  0  0  0  0  0  0  0
    8.7362    2.1996   25.0259 H   0  0  0  0  0  0  0  0  0  0  0  0
    9.0419    2.3659   23.2636 H   0  0  0  0  0  0  0  0  0  0  0  0
    8.9921   -0.2341   24.8530 H   0  0  0  0  0  0  0  0  0  0  0  0
    7.7060    0.3675   23.7528 H   0  0  0  0  0  0  0  0  0  0  0  0
    8.2911   -2.1080   22.7205 H   0  0  0  0  0  0  0  0  0  0  0  0
    9.9015   -2.2831   21.9444 H   0  0  0  0  0  0  0  0  0  0  0  0
   11.2859   -4.7208   25.0125 H   0  0  0  0  0  0  0  0  0  0  0  0
   10.3386   -5.1802   27.3198 H   0  0  0  0  0  0  0  0  0  0  0  0
    9.9600   -3.4568   26.9837 H   0  0  0  0  0  0  0  0  0  0  0  0
    7.3101   -3.5118   24.4641 H   0  0  0  0  0  0  0  0  0  0  0  0
    7.9273   -4.6567   23.2251 H   0  0  0  0  0  0  0  0  0  0  0  0
    7.2392   -6.0792   25.2188 H   0  0  0  0  0  0  0  0  0  0  0  0
    9.7449   -6.8162   25.5889 H   0  0  0  0  0  0  0  0  0  0  0  0
    9.5177   -6.3228   23.8767 H   0  0  0  0  0  0  0  0  0  0  0  0
    5.5714   -3.7982   28.1771 H   0  0  0  0  0  0  0  0  0  0  0  0
    6.3300   -3.0034   26.7562 H   0  0  0  0  0  0  0  0  0  0  0  0
    5.6065   -4.6391   26.5903 H   0  0  0  0  0  0  0  0  0  0  0  0
  1  2  2  0
  2  3  1  0
 14  2  1  6
  3  4  1  0
  3 38  1  0
  4  5  2  0
  4 13  1  0
  5  6  1  0
  5 10  1  0
  6  7  2  0
  6 39  1  0
  7  8  1  0
  7 40  1  0
  8  9  2  0
  8 41  1  0
  9 10  1  0
  9 42  1  0
 10 11  2  0
 11 12  1  0
 11 43  1  0
 12 13  2  0
 13 44  1  0
 14 15  1  0
 14 24  1  0
 14 25  1  0
 15 16  2  0
 15 21  1  0
 16 17  1  0
 16 45  1  0
 17 18  1  0
 17 19  2  0
 19 20  1  0
 19 46  1  0
 20 21  2  0
 20 47  1  0
 21 22  1  0
 22 23  1  0
 23 24  1  0
 23 48  1  1
 23 49  1  0
 24 50  1  1
 24 51  1  0
 25 26  1  0
 25 52  1  6
 25 53  1  0
 26 27  2  0
 26 28  1  0
 28 29  1  0
 28 31  1  0
 29 30  1  0
 29 33  1  0
 29 54  1  1
 30 34  1  0
 30 55  1  1
 30 56  1  0
 31 32  1  0
 31 57  1  1
 31 58  1  0
 32 33  1  0
 32 34  1  0
 32 59  1  1
 33 60  1  1
 33 61  1  0
 34 35  1  0
 35 36  2  0
 35 37  1  0
 37 62  1  1
 37 63  1  0
 37 64  1  0
M  END
$$$$
