LIG(A-305)
     RDKit          3D

 28 29  0  0  1  0  0  0  0  0999 V2000
   10.0422    1.4413   21.3830 N   0  0  0  0  0  0  0  0  0  0  0  0
    9.8991    0.4753   21.9910 C   0  0  0  0  0  0  0  0  0  0  0  0
    7.4226   -5.8975   25.4391 O   0  0  0  0  0  0  0  0  0  0  0  0
    9.7280   -0.6767   22.7790 C   0  0  0  0  0  0  0  0  0  0  0  0
    8.8318   -4.1826   26.5030 C   0  0  1  0  0  0  0  0  0  0  0  0
    9.0230   -0.5756   23.9670 C   0  0  0  0  0  0  0  0  0  0  0  0
    8.9480   -1.6856   24.8020 C   0  0  0  0  0  0  0  0  0  0  0  0
    9.5839   -2.8927   24.4440 C   0  0  0  0  0  0  0  0  0  0  0  0
   10.2569   -2.8817   23.1770 C   0  0  0  0  0  0  0  0  0  0  0  0
   10.0177   -5.3957   24.6781 C   0  0  1  0  0  0  0  0  0  0  0  0
    9.0286   -5.8986   23.6201 C   0  0  1  0  0  0  0  0  0  0  0  0
    7.5636   -5.6785   24.0401 C   0  0  1  0  0  0  0  0  0  0  0  0
    7.4137   -4.7705   26.2811 C   0  0  1  0  0  0  0  0  0  0  0  0
   10.3389   -1.8218   22.3550 N   0  0  0  0  0  0  0  0  0  0  0  0
    9.6598   -4.0767   25.2700 N   0  0  0  0  0  0  0  0  0  0  0  0
    8.7223   -3.1749   26.9301 H   0  0  0  0  0  0  0  0  0  0  0  0
    9.3626   -4.8282   27.2182 H   0  0  0  0  0  0  0  0  0  0  0  0
    8.5393    0.3504   24.2407 H   0  0  0  0  0  0  0  0  0  0  0  0
    8.3994   -1.6228   25.7302 H   0  0  0  0  0  0  0  0  0  0  0  0
   10.7347   -3.7966   22.8591 H   0  0  0  0  0  0  0  0  0  0  0  0
   10.0618   -6.1373   25.4893 H   0  0  0  0  0  0  0  0  0  0  0  0
   11.0086   -5.3059   24.2089 H   0  0  0  0  0  0  0  0  0  0  0  0
    9.2121   -5.3591   22.6792 H   0  0  0  0  0  0  0  0  0  0  0  0
    9.1942   -6.9749   23.4639 H   0  0  0  0  0  0  0  0  0  0  0  0
    6.9180   -6.3820   23.4939 H   0  0  0  0  0  0  0  0  0  0  0  0
    7.2667   -4.6468   23.8007 H   0  0  0  0  0  0  0  0  0  0  0  0
    6.7781   -3.9960   25.8270 H   0  0  0  0  0  0  0  0  0  0  0  0
    6.9963   -5.0622   27.2561 H   0  0  0  0  0  0  0  0  0  0  0  0
  1  2  3  0
  2  4  1  0
  3 12  1  0
  3 13  1  0
  4  6  2  0
  4 14  1  0
  5 13  1  0
  5 15  1  0
  5 16  1  1
  5 17  1  0
  6  7  1  0
  6 18  1  0
  7  8  2  0
  7 19  1  0
  8  9  1  0
  8 15  1  0
  9 14  2  0
  9 20  1  0
 10 11  1  0
 10 15  1  0
 10 21  1  1
 10 22  1  0
 11 12  1  0
 11 23  1  6
 11 24  1  0
 12 25  1  6
 12 26  1  0
 13 27  1  6
 13 28  1  0
M  END
$$$$
