LIG(A-306)
     RDKit          3D

 53 57  0  0  1  0  0  0  0  0999 V2000
   10.5776    3.1472   24.4864 O   0  0  0  0  0  0  0  0  0  0  0  0
   10.2498    1.9907   24.2721 C   0  0  0  0  0  0  0  0  0  0  0  0
    8.9692    1.5638   24.4798 N   0  0  0  0  0  0  0  0  0  0  0  0
    7.9894    2.4838   25.0976 C   0  0  1  0  0  0  0  0  0  0  0  0
    7.2338    1.9522   26.2836 C   0  0  1  0  0  0  0  0  0  0  0  0
    8.3033    2.9682   26.4868 C   0  0  2  0  0  0  0  0  0  0  0  0
    7.2277    3.4596   24.1993 C   0  0  0  0  0  0  0  0  0  0  0  0
    6.2288    4.0056   24.6453 O   0  0  0  0  0  0  0  0  0  0  0  0
    7.6867    3.6708   22.9701 N   0  0  0  0  0  0  0  0  0  0  0  0
    7.0209    4.5833   22.0615 C   0  0  1  0  0  0  0  0  0  0  0  0
   11.1732    1.0328   23.6413 C   0  0  0  0  0  0  0  0  0  0  0  0
   12.5252    1.3593   23.5294 C   0  0  0  0  0  0  0  0  0  0  0  0
   13.4061    0.4834   22.9234 C   0  0  0  0  0  0  0  0  0  0  0  0
   12.9294   -0.7094   22.4260 C   0  0  0  0  0  0  0  0  0  0  0  0
   14.0401   -1.8128   21.6712 Cl  0  0  0  0  0  0  0  0  0  0  0  0
   11.5883   -1.0380   22.4810 C   0  0  0  0  0  0  0  0  0  0  0  0
   10.6870   -0.1504   23.0676 C   0  0  0  0  0  0  0  0  0  0  0  0
    9.1996   -0.4080   22.9876 C   0  0  1  0  0  0  0  0  0  0  0  0
    8.5079    0.1818   24.2157 C   0  0  2  0  0  0  0  0  0  0  0  0
    8.6259    0.2617   21.7336 C   0  0  0  0  0  0  0  0  0  0  0  0
    9.0504    1.3418   21.3117 O   0  0  0  0  0  0  0  0  0  0  0  0
    7.5775   -0.3937   21.1733 N   0  0  0  0  0  0  0  0  0  0  0  0
    6.7821    0.0125   20.0786 C   0  0  0  0  0  0  0  0  0  0  0  0
    5.6647    0.8646   20.3351 C   0  0  0  0  0  0  0  0  0  0  0  0
    5.1678    1.1404   21.6340 C   0  0  0  0  0  0  0  0  0  0  0  0
    4.0888    1.9589   21.8134 C   0  0  0  0  0  0  0  0  0  0  0  0
    3.4587    2.5487   20.7267 C   0  0  0  0  0  0  0  0  0  0  0  0
    3.8950    2.3092   19.4548 C   0  0  0  0  0  0  0  0  0  0  0  0
    4.9938    1.4469   19.2216 C   0  0  0  0  0  0  0  0  0  0  0  0
    5.4409    1.0959   17.9228 C   0  0  0  0  0  0  0  0  0  0  0  0
    6.4435    0.2604   17.6828 N   0  0  0  0  0  0  0  0  0  0  0  0
    7.0893   -0.2524   18.7424 C   0  0  0  0  0  0  0  0  0  0  0  0
    6.1793    2.2282   26.4313 H   0  0  0  0  0  0  0  0  0  0  0  0
    7.3914    0.9153   26.6152 H   0  0  0  0  0  0  0  0  0  0  0  0
    8.0376    3.9934   26.7842 H   0  0  0  0  0  0  0  0  0  0  0  0
    9.2498    2.6806   26.9679 H   0  0  0  0  0  0  0  0  0  0  0  0
    8.5090    3.1899   22.6654 H   0  0  0  0  0  0  0  0  0  0  0  0
    7.5626    4.6090   21.1045 H   0  0  0  0  0  0  0  0  0  0  0  0
    5.9894    4.2420   21.8898 H   0  0  0  0  0  0  0  0  0  0  0  0
    7.0051    5.5917   22.5010 H   0  0  0  0  0  0  0  0  0  0  0  0
   12.8850    2.3006   23.9181 H   0  0  0  0  0  0  0  0  0  0  0  0
   14.4541    0.7308   22.8410 H   0  0  0  0  0  0  0  0  0  0  0  0
   11.2409   -1.9754   22.0725 H   0  0  0  0  0  0  0  0  0  0  0  0
    9.0113   -1.4909   22.9437 H   0  0  0  0  0  0  0  0  0  0  0  0
    7.4214    0.1931   24.0444 H   0  0  0  0  0  0  0  0  0  0  0  0
    8.7347   -0.4451   25.0906 H   0  0  0  0  0  0  0  0  0  0  0  0
    7.3386   -1.2725   21.5864 H   0  0  0  0  0  0  0  0  0  0  0  0
    5.6488    0.6972   22.4934 H   0  0  0  0  0  0  0  0  0  0  0  0
    3.7223    2.1491   22.8114 H   0  0  0  0  0  0  0  0  0  0  0  0
    2.6151    3.2034   20.8882 H   0  0  0  0  0  0  0  0  0  0  0  0
    3.3979    2.7811   18.6203 H   0  0  0  0  0  0  0  0  0  0  0  0
    4.9343    1.5357   17.0765 H   0  0  0  0  0  0  0  0  0  0  0  0
    7.9124   -0.9235   18.5455 H   0  0  0  0  0  0  0  0  0  0  0  0
  1  2  2  0
  2  3  1  0
  2 11  1  0
  4  3  1  6
  3 19  1  0
  4  5  1  0
  4  6  1  0
  4  7  1  0
  5  6  1  0
  5 33  1  6
  5 34  1  0
  6 35  1  6
  6 36  1  0
  7  8  2  0
  7  9  1  0
  9 10  1  0
  9 37  1  0
 10 38  1  6
 10 39  1  0
 10 40  1  0
 11 12  2  0
 11 17  1  0
 12 13  1  0
 12 41  1  0
 13 14  2  0
 13 42  1  0
 14 15  1  0
 14 16  1  0
 16 17  2  0
 16 43  1  0
 17 18  1  0
 18 19  1  0
 18 20  1  0
 18 44  1  6
 19 45  1  6
 19 46  1  0
 20 21  2  0
 20 22  1  0
 22 23  1  0
 22 47  1  0
 23 24  2  0
 23 32  1  0
 24 25  1  0
 24 29  1  0
 25 26  2  0
 25 48  1  0
 26 27  1  0
 26 49  1  0
 27 28  2  0
 27 50  1  0
 28 29  1  0
 28 51  1  0
 29 30  2  0
 30 31  1  0
 30 52  1  0
 31 32  2  0
 32 53  1  0
M  END
$$$$
