LIG(A-306)
     RDKit          3D

 41 44  0  0  1  0  0  0  0  0999 V2000
   -9.6023    0.4622  -20.9776 O   0  0  0  0  0  0  0  0  0  0  0  0
   -9.0052   -0.5419  -21.3817 C   0  0  0  0  0  0  0  0  0  0  0  0
   -9.5187   -1.3796  -22.5550 C   0  0  2  0  0  0  0  0  0  0  0  0
   -8.8033   -0.9799  -23.8515 C   0  0  1  0  0  0  0  0  0  0  0  0
   -9.0764    0.4259  -24.1694 N   0  0  1  0  0  0  0  0  0  0  0  0
  -10.4952    0.6702  -24.4388 C   0  0  1  0  0  0  0  0  0  0  0  0
  -10.9992   -1.0907  -22.6782 C   0  0  0  0  0  0  0  0  0  0  0  0
  -11.4519   -0.0916  -23.5542 C   0  0  0  0  0  0  0  0  0  0  0  0
  -12.8204    0.1619  -23.6416 C   0  0  0  0  0  0  0  0  0  0  0  0
  -13.7281   -0.5515  -22.8789 C   0  0  0  0  0  0  0  0  0  0  0  0
  -11.9189   -1.8131  -21.9185 C   0  0  0  0  0  0  0  0  0  0  0  0
  -13.2623   -1.5166  -22.0148 C   0  0  0  0  0  0  0  0  0  0  0  0
  -14.3769   -2.3067  -20.9361 Cl  0  0  0  0  0  0  0  0  0  0  0  0
   -7.8386   -0.9805  -20.8457 N   0  0  0  0  0  0  0  0  0  0  0  0
   -7.1159   -0.4058  -19.7806 C   0  0  0  0  0  0  0  0  0  0  0  0
   -6.0392    0.4857  -20.0839 C   0  0  0  0  0  0  0  0  0  0  0  0
   -5.5732    0.7441  -21.3996 C   0  0  0  0  0  0  0  0  0  0  0  0
   -4.5484    1.6204  -21.6229 C   0  0  0  0  0  0  0  0  0  0  0  0
   -3.9375    2.2804  -20.5634 C   0  0  0  0  0  0  0  0  0  0  0  0
   -4.3504    2.0639  -19.2786 C   0  0  0  0  0  0  0  0  0  0  0  0
   -5.4072    1.1615  -19.0034 C   0  0  0  0  0  0  0  0  0  0  0  0
   -5.8752    0.8931  -17.6937 C   0  0  0  0  0  0  0  0  0  0  0  0
   -6.8648    0.0555  -17.4113 N   0  0  0  0  0  0  0  0  0  0  0  0
   -7.4586   -0.5686  -18.4387 C   0  0  0  0  0  0  0  0  0  0  0  0
   -9.3564   -2.4485  -22.3521 H   0  0  0  0  0  0  0  0  0  0  0  0
   -7.7195   -1.1200  -23.7263 H   0  0  0  0  0  0  0  0  0  0  0  0
   -9.1624   -1.6147  -24.6749 H   0  0  0  0  0  0  0  0  0  0  0  0
   -8.7944    0.9914  -23.3943 H   0  0  0  0  0  0  0  0  0  0  0  0
   -8.5470    0.6812  -24.9783 H   0  0  0  0  0  0  0  0  0  0  0  0
  -10.6881    1.7448  -24.3045 H   0  0  0  0  0  0  0  0  0  0  0  0
  -10.6979    0.3888  -25.4827 H   0  0  0  0  0  0  0  0  0  0  0  0
  -13.1773    0.9271  -24.3150 H   0  0  0  0  0  0  0  0  0  0  0  0
  -14.7868   -0.3541  -22.9604 H   0  0  0  0  0  0  0  0  0  0  0  0
  -11.5814   -2.5993  -21.2594 H   0  0  0  0  0  0  0  0  0  0  0  0
   -7.4466   -1.8056  -21.2526 H   0  0  0  0  0  0  0  0  0  0  0  0
   -6.0351    0.2409  -22.2363 H   0  0  0  0  0  0  0  0  0  0  0  0
   -4.2101    1.8018  -22.6324 H   0  0  0  0  0  0  0  0  0  0  0  0
   -3.1294    2.9702  -20.7569 H   0  0  0  0  0  0  0  0  0  0  0  0
   -3.8668    2.5855  -18.4659 H   0  0  0  0  0  0  0  0  0  0  0  0
   -5.3955    1.4034  -16.8715 H   0  0  0  0  0  0  0  0  0  0  0  0
   -8.2645   -1.2500  -18.2094 H   0  0  0  0  0  0  0  0  0  0  0  0
  1  2  2  0
  2  3  1  0
  2 14  1  0
  3  4  1  0
  3  7  1  0
  3 25  1  1
  4  5  1  0
  4 26  1  1
  4 27  1  0
  5  6  1  0
  5 28  1  1
  5 29  1  0
  6  8  1  0
  6 30  1  6
  6 31  1  0
  7  8  2  0
  7 11  1  0
  8  9  1  0
  9 10  2  0
  9 32  1  0
 10 12  1  0
 10 33  1  0
 11 12  2  0
 11 34  1  0
 12 13  1  0
 14 15  1  0
 14 35  1  0
 15 16  2  0
 15 24  1  0
 16 17  1  0
 16 21  1  0
 17 18  2  0
 17 36  1  0
 18 19  1  0
 18 37  1  0
 19 20  2  0
 19 38  1  0
 20 21  1  0
 20 39  1  0
 21 22  2  0
 22 23  1  0
 22 40  1  0
 23 24  2  0
 24 41  1  0
M  CHG  1   5   1
M  END
$$$$
