LIG(A-305)
     RDKit          3D

 37 39  0  0  0  0  0  0  0  0999 V2000
    6.4201    0.6676   17.3500 N   0  0  0  0  0  0  0  0  0  0  0  0
    9.3841   -0.3793   23.3931 N   0  0  0  0  0  0  0  0  0  0  0  0
    5.2871    0.9067   19.9060 C   0  0  0  0  0  0  0  0  0  0  0  0
   12.8671    0.3676   24.2650 C   0  0  0  0  0  0  0  0  0  0  0  0
    7.5081    0.7018   24.1790 O   0  0  0  0  0  0  0  0  0  0  0  0
    8.7251    0.5427   24.1810 C   0  0  0  0  0  0  0  0  0  0  0  0
    4.7741    1.5997   18.8170 C   0  0  0  0  0  0  0  0  0  0  0  0
    8.1431   -0.2774   21.3151 C   0  0  0  0  0  0  0  0  0  0  0  0
    6.3761    0.0527   19.6701 C   0  0  0  0  0  0  0  0  0  0  0  0
    6.9021   -0.0334   18.3821 C   0  0  0  0  0  0  0  0  0  0  0  0
   11.4921    0.2676   24.3200 C   0  0  0  0  0  0  0  0  0  0  0  0
   12.8591   -1.0595   22.3621 C   0  0  0  0  0  0  0  0  0  0  0  0
    9.5662    1.4097   25.0870 C   0  0  1  0  0  0  0  0  0  0  0  0
   13.5521   -0.2805   23.2580 C   0  0  0  0  0  0  0  0  0  0  0  0
   11.4830   -1.1715   22.3961 C   0  0  0  0  0  0  0  0  0  0  0  0
    4.7421    1.1438   21.2920 C   0  0  1  0  0  0  0  0  0  0  0  0
    6.9761   -0.6423   20.7431 N   0  0  0  0  0  0  0  0  0  0  0  0
    8.7931    0.7116   20.9920 O   0  0  0  0  0  0  0  0  0  0  0  0
   10.8631    0.8727   25.3770 O   0  0  0  0  0  0  0  0  0  0  0  0
    8.5830   -1.1653   22.4631 C   0  0  2  0  0  0  0  0  0  0  0  0
    5.3691    1.4666   17.5810 C   0  0  0  0  0  0  0  0  0  0  0  0
   10.7871   -0.4604   23.3701 C   0  0  0  0  0  0  0  0  0  0  0  0
   13.7530   -1.9656   21.1721 Cl  0  0  0  0  0  0  0  0  0  0  0  0
   13.4018    0.9473   25.0029 H   0  0  0  0  0  0  0  0  0  0  0  0
    3.9129    2.2399   18.9383 H   0  0  0  0  0  0  0  0  0  0  0  0
    7.7369   -0.6964   18.2096 H   0  0  0  0  0  0  0  0  0  0  0  0
    9.6986    2.3883   24.6024 H   0  0  0  0  0  0  0  0  0  0  0  0
    9.0270    1.5409   26.0368 H   0  0  0  0  0  0  0  0  0  0  0  0
   14.6238   -0.1767   23.1743 H   0  0  0  0  0  0  0  0  0  0  0  0
   10.9602   -1.7945   21.6855 H   0  0  0  0  0  0  0  0  0  0  0  0
    3.9432    1.8987   21.2483 H   0  0  0  0  0  0  0  0  0  0  0  0
    4.3359    0.2031   21.6921 H   0  0  0  0  0  0  0  0  0  0  0  0
    5.5499    1.5023   21.9471 H   0  0  0  0  0  0  0  0  0  0  0  0
    6.5094   -1.4516   21.0998 H   0  0  0  0  0  0  0  0  0  0  0  0
    7.6981   -1.5615   22.9826 H   0  0  0  0  0  0  0  0  0  0  0  0
    9.1840   -2.0004   22.0737 H   0  0  0  0  0  0  0  0  0  0  0  0
    4.9676    2.0358   16.7557 H   0  0  0  0  0  0  0  0  0  0  0  0
  1 10  1  0
  1 21  2  0
  2  6  1  0
  2 20  1  0
  2 22  1  0
  3  7  2  0
  3  9  1  0
  3 16  1  0
  4 11  2  0
  4 14  1  0
  4 24  1  0
  5  6  2  0
  6 13  1  0
  7 21  1  0
  7 25  1  0
  8 17  1  0
  8 18  2  0
  8 20  1  0
  9 10  2  0
  9 17  1  0
 10 26  1  0
 11 19  1  0
 11 22  1  0
 12 14  2  0
 12 15  1  0
 12 23  1  0
 13 19  1  0
 13 27  1  6
 13 28  1  0
 14 29  1  0
 15 22  2  0
 15 30  1  0
 16 31  1  6
 16 32  1  0
 16 33  1  0
 17 34  1  0
 20 35  1  1
 20 36  1  0
 21 37  1  0
M  END
$$$$
