LIG(A-305)
     RDKit          3D

 37 39  0  0  1  0  0  0  0  0999 V2000
    6.4272    0.6837   17.4599 N   0  0  0  0  0  0  0  0  0  0  0  0
   13.0923    4.0013   21.8394 N   0  0  0  0  0  0  0  0  0  0  0  0
    7.3776   -0.6202   20.8758 C   0  0  1  0  0  0  0  0  0  0  0  0
   12.4452    1.1995   23.1368 C   0  0  0  0  0  0  0  0  0  0  0  0
   12.7125    2.4415   23.6736 O   0  0  0  0  0  0  0  0  0  0  0  0
   11.8998   -1.3136   22.1101 C   0  0  0  0  0  0  0  0  0  0  0  0
    6.6225    0.1088   19.7879 C   0  0  0  0  0  0  0  0  0  0  0  0
    7.0393    0.0477   18.4688 C   0  0  0  0  0  0  0  0  0  0  0  0
    5.3463    1.4208   17.7630 C   0  0  0  0  0  0  0  0  0  0  0  0
    4.8506    1.5500   19.0481 C   0  0  0  0  0  0  0  0  0  0  0  0
   13.4851    0.3093   22.9177 C   0  0  0  0  0  0  0  0  0  0  0  0
   12.5047    4.8355   23.6475 C   0  0  1  0  0  0  0  0  0  0  0  0
   13.2049   -0.9487   22.4028 C   0  0  0  0  0  0  0  0  0  0  0  0
   12.1724    3.5355   22.9086 C   0  0  1  0  0  0  0  0  0  0  0  0
   13.1515    5.2533   22.3363 C   0  0  0  0  0  0  0  0  0  0  0  0
    8.6638    0.0787   21.2715 C   0  0  0  0  0  0  0  0  0  0  0  0
    9.5498   -0.7193   21.9074 N   0  0  0  0  0  0  0  0  0  0  0  0
    8.8639    1.2647   21.0154 O   0  0  0  0  0  0  0  0  0  0  0  0
   13.5476    6.3132   21.8472 O   0  0  0  0  0  0  0  0  0  0  0  0
   10.8659   -0.4074   22.3132 C   0  0  0  0  0  0  0  0  0  0  0  0
    5.5017    0.8800   20.0690 C   0  0  0  0  0  0  0  0  0  0  0  0
   11.1361    0.8496   22.8430 C   0  0  0  0  0  0  0  0  0  0  0  0
   13.5104    3.5544   21.0486 H   0  0  0  0  0  0  0  0  0  0  0  0
    6.7311   -0.6940   21.7627 H   0  0  0  0  0  0  0  0  0  0  0  0
    7.6234   -1.6302   20.5161 H   0  0  0  0  0  0  0  0  0  0  0  0
   11.6870   -2.2999   21.7250 H   0  0  0  0  0  0  0  0  0  0  0  0
    7.9101   -0.5484   18.2389 H   0  0  0  0  0  0  0  0  0  0  0  0
    4.8384    1.9390   16.9630 H   0  0  0  0  0  0  0  0  0  0  0  0
    3.9799    2.1566   19.2489 H   0  0  0  0  0  0  0  0  0  0  0  0
   14.5024    0.5917   23.1452 H   0  0  0  0  0  0  0  0  0  0  0  0
   11.6355    5.4360   23.9539 H   0  0  0  0  0  0  0  0  0  0  0  0
   13.1946    4.7286   24.4976 H   0  0  0  0  0  0  0  0  0  0  0  0
   14.0090   -1.6483   22.2291 H   0  0  0  0  0  0  0  0  0  0  0  0
   11.1181    3.4408   22.6097 H   0  0  0  0  0  0  0  0  0  0  0  0
    9.2345   -1.6450   22.1165 H   0  0  0  0  0  0  0  0  0  0  0  0
    5.1387    0.9565   21.0834 H   0  0  0  0  0  0  0  0  0  0  0  0
   10.3324    1.5479   23.0243 H   0  0  0  0  0  0  0  0  0  0  0  0
  1  8  2  0
  1  9  1  0
  2 14  1  0
  2 15  1  0
  2 23  1  0
  3  7  1  0
  3 16  1  0
  3 24  1  1
  3 25  1  0
  4  5  1  0
  4 11  2  0
  4 22  1  0
  5 14  1  0
  6 13  2  0
  6 20  1  0
  6 26  1  0
  7  8  1  0
  7 21  2  0
  8 27  1  0
  9 10  2  0
  9 28  1  0
 10 21  1  0
 10 29  1  0
 11 13  1  0
 11 30  1  0
 12 14  1  0
 12 15  1  0
 12 31  1  1
 12 32  1  0
 13 33  1  0
 14 34  1  6
 15 19  2  0
 16 17  1  0
 16 18  2  0
 17 20  1  0
 17 35  1  0
 20 22  2  0
 21 36  1  0
 22 37  1  0
M  END
$$$$
