LIG(A-306)
     RDKit          3D

 40 43  0  0  1  0  0  0  0  0999 V2000
  -14.8317   -2.3564  -20.5143 Cl  0  0  0  0  0  0  0  0  0  0  0  0
  -13.8548   -1.4649  -21.6424 C   0  0  0  0  0  0  0  0  0  0  0  0
  -14.4576   -0.5505  -22.4795 C   0  0  0  0  0  0  0  0  0  0  0  0
  -13.6769    0.1736  -23.3630 C   0  0  0  0  0  0  0  0  0  0  0  0
  -12.4904   -1.6724  -21.6549 C   0  0  0  0  0  0  0  0  0  0  0  0
  -11.6876   -0.9464  -22.5284 C   0  0  0  0  0  0  0  0  0  0  0  0
  -12.3054   -0.0338  -23.3925 C   0  0  0  0  0  0  0  0  0  0  0  0
  -11.6249    0.6538  -24.3710 O   0  0  0  0  0  0  0  0  0  0  0  0
  -10.1857    0.6868  -24.2477 C   0  0  1  0  0  0  0  0  0  0  0  0
   -9.6117   -0.6609  -23.8981 C   0  0  1  0  0  0  0  0  0  0  0  0
  -10.1842   -1.1431  -22.5540 C   0  0  1  0  0  0  0  0  0  0  0  0
   -9.5547   -0.3757  -21.3891 C   0  0  0  0  0  0  0  0  0  0  0  0
  -10.1086    0.5859  -20.8641 O   0  0  0  0  0  0  0  0  0  0  0  0
   -8.2862   -0.7209  -21.1059 N   0  0  0  0  0  0  0  0  0  0  0  0
   -7.5000   -0.4208  -19.9789 C   0  0  0  0  0  0  0  0  0  0  0  0
   -7.9593   -0.4092  -18.6612 C   0  0  0  0  0  0  0  0  0  0  0  0
   -7.2807    0.1065  -17.6263 N   0  0  0  0  0  0  0  0  0  0  0  0
   -6.1015    0.6834  -17.8788 C   0  0  0  0  0  0  0  0  0  0  0  0
   -6.2668    0.1919  -20.2203 C   0  0  0  0  0  0  0  0  0  0  0  0
   -5.5903    0.5752  -21.3869 N   0  0  0  0  0  0  0  0  0  0  0  0
   -5.9409    0.2529  -22.7686 C   0  0  1  0  0  0  0  0  0  0  0  0
   -5.5799    0.7755  -19.1612 C   0  0  0  0  0  0  0  0  0  0  0  0
   -4.5068    1.4736  -19.6921 N   0  0  0  0  0  0  0  0  0  0  0  0
   -4.4969    1.3573  -21.0546 C   0  0  0  0  0  0  0  0  0  0  0  0
   -3.6847    1.8289  -21.8380 O   0  0  0  0  0  0  0  0  0  0  0  0
  -15.5267   -0.4010  -22.4461 H   0  0  0  0  0  0  0  0  0  0  0  0
  -14.1320    0.8952  -24.0251 H   0  0  0  0  0  0  0  0  0  0  0  0
  -12.0469   -2.3968  -20.9878 H   0  0  0  0  0  0  0  0  0  0  0  0
   -9.7560    1.0169  -25.2050 H   0  0  0  0  0  0  0  0  0  0  0  0
   -9.9145    1.4027  -23.4577 H   0  0  0  0  0  0  0  0  0  0  0  0
   -9.8724   -1.3834  -24.6854 H   0  0  0  0  0  0  0  0  0  0  0  0
   -8.5173   -0.5819  -23.8207 H   0  0  0  0  0  0  0  0  0  0  0  0
   -9.9600   -2.2137  -22.4374 H   0  0  0  0  0  0  0  0  0  0  0  0
   -7.8325   -1.2759  -21.8032 H   0  0  0  0  0  0  0  0  0  0  0  0
   -8.9271   -0.8451  -18.4616 H   0  0  0  0  0  0  0  0  0  0  0  0
   -5.5347    1.0923  -17.0554 H   0  0  0  0  0  0  0  0  0  0  0  0
   -6.9420    0.6483  -22.9952 H   0  0  0  0  0  0  0  0  0  0  0  0
   -5.2050    0.7064  -23.4488 H   0  0  0  0  0  0  0  0  0  0  0  0
   -5.9393   -0.8390  -22.9019 H   0  0  0  0  0  0  0  0  0  0  0  0
   -3.8351    1.9863  -19.1453 H   0  0  0  0  0  0  0  0  0  0  0  0
  1  2  1  0
  2  3  2  0
  2  5  1  0
  3  4  1  0
  3 26  1  0
  4  7  2  0
  4 27  1  0
  5  6  2  0
  5 28  1  0
  6  7  1  0
  6 11  1  0
  7  8  1  0
  8  9  1  0
  9 10  1  0
  9 29  1  6
  9 30  1  0
 10 11  1  0
 10 31  1  6
 10 32  1  0
 11 12  1  0
 11 33  1  1
 12 13  2  0
 12 14  1  0
 14 15  1  0
 14 34  1  0
 15 16  2  0
 15 19  1  0
 16 17  1  0
 16 35  1  0
 17 18  2  0
 18 22  1  0
 18 36  1  0
 19 20  1  0
 19 22  2  0
 20 21  1  0
 20 24  1  0
 21 37  1  6
 21 38  1  0
 21 39  1  0
 22 23  1  0
 23 24  1  0
 23 40  1  0
 24 25  2  0
M  END
$$$$
