LIG(A-305)
     RDKit          3D

 41 43  0  0  0  0  0  0  0  0999 V2000
    6.9562   -2.2360   20.8211 N   0  0  0  0  0  0  0  0  0  0  0  0
    8.4178   -3.0902   19.1578 C   0  0  1  0  0  0  0  0  0  0  0  0
    6.0557   -3.4419   19.1203 O   0  0  0  0  0  0  0  0  0  0  0  0
    7.0249   -2.9390   19.6781 C   0  0  0  0  0  0  0  0  0  0  0  0
   12.0816    1.9544   24.6509 C   0  0  0  0  0  0  0  0  0  0  0  0
   11.0709    2.2196   25.5161 C   0  0  0  0  0  0  0  0  0  0  0  0
   10.0778    1.2637   25.7663 C   0  0  0  0  0  0  0  0  0  0  0  0
   10.1005    0.0667   25.1174 C   0  0  0  0  0  0  0  0  0  0  0  0
   11.1272   -0.2495   24.1891 C   0  0  0  0  0  0  0  0  0  0  0  0
    8.0535   -3.3591   22.7299 C   0  0  1  0  0  0  0  0  0  0  0  0
    6.7474   -2.9850   22.0622 C   0  0  1  0  0  0  0  0  0  0  0  0
    7.9114   -1.1311   20.9559 C   0  0  1  0  0  0  0  0  0  0  0  0
    9.1765   -1.5273   21.6916 C   0  0  1  0  0  0  0  0  0  0  0  0
   10.1068   -2.5203   23.6884 C   0  0  1  0  0  0  0  0  0  0  0  0
   11.1929   -1.4895   23.4921 C   0  0  0  0  0  0  0  0  0  0  0  0
   12.2127   -1.6996   22.5989 C   0  0  0  0  0  0  0  0  0  0  0  0
   13.2168   -0.7408   22.3827 C   0  0  0  0  0  0  0  0  0  0  0  0
   13.1811    0.4403   23.0457 C   0  0  0  0  0  0  0  0  0  0  0  0
   12.1393    0.7234   23.9599 C   0  0  0  0  0  0  0  0  0  0  0  0
    8.8747   -2.1752   22.9697 N   0  0  2  0  0  0  0  0  0  0  0  0
    8.4034   -3.6982   18.2412 H   0  0  0  0  0  0  0  0  0  0  0  0
    8.8347   -2.0975   18.9327 H   0  0  0  0  0  0  0  0  0  0  0  0
    9.0408   -3.5861   19.9168 H   0  0  0  0  0  0  0  0  0  0  0  0
   12.8520    2.6937   24.4882 H   0  0  0  0  0  0  0  0  0  0  0  0
   11.0315    3.1759   26.0163 H   0  0  0  0  0  0  0  0  0  0  0  0
    9.2920    1.4767   26.4759 H   0  0  0  0  0  0  0  0  0  0  0  0
    9.3222   -0.6562   25.3125 H   0  0  0  0  0  0  0  0  0  0  0  0
    7.8391   -3.8493   23.6911 H   0  0  0  0  0  0  0  0  0  0  0  0
    8.6046   -4.0538   22.0790 H   0  0  0  0  0  0  0  0  0  0  0  0
    6.1598   -2.3653   22.7555 H   0  0  0  0  0  0  0  0  0  0  0  0
    6.1910   -3.9053   21.8313 H   0  0  0  0  0  0  0  0  0  0  0  0
    8.1861   -0.7808   19.9500 H   0  0  0  0  0  0  0  0  0  0  0  0
    7.4258   -0.3137   21.5090 H   0  0  0  0  0  0  0  0  0  0  0  0
    9.7510   -2.2248   21.0644 H   0  0  0  0  0  0  0  0  0  0  0  0
    9.7768   -0.6252   21.8813 H   0  0  0  0  0  0  0  0  0  0  0  0
   10.4703   -3.4914   23.3212 H   0  0  0  0  0  0  0  0  0  0  0  0
    9.8807   -2.5958   24.7623 H   0  0  0  0  0  0  0  0  0  0  0  0
   12.2447   -2.6273   22.0469 H   0  0  0  0  0  0  0  0  0  0  0  0
   14.0176   -0.9454   21.6875 H   0  0  0  0  0  0  0  0  0  0  0  0
   13.9558    1.1730   22.8745 H   0  0  0  0  0  0  0  0  0  0  0  0
    8.3508   -1.5353   23.5320 H   0  0  0  0  0  0  0  0  0  0  0  0
  1  4  1  0
  1 11  1  0
  1 12  1  0
  2  4  1  0
  2 21  1  6
  2 22  1  0
  2 23  1  0
  3  4  2  0
  5  6  2  0
  5 19  1  0
  5 24  1  0
  6  7  1  0
  6 25  1  0
  7  8  2  0
  7 26  1  0
  8  9  1  0
  8 27  1  0
  9 15  2  0
  9 19  1  0
 10 11  1  0
 10 20  1  0
 10 28  1  1
 10 29  1  0
 11 30  1  1
 11 31  1  0
 12 13  1  0
 12 32  1  6
 12 33  1  0
 13 20  1  0
 13 34  1  6
 13 35  1  0
 14 15  1  0
 14 20  1  0
 14 36  1  6
 14 37  1  0
 15 16  1  0
 16 17  2  0
 16 38  1  0
 17 18  1  0
 17 39  1  0
 18 19  2  0
 18 40  1  0
 20 41  1  1
M  CHG  1  20   1
M  END
$$$$
