LIG(B-307)
     RDKit          3D

 40 42  0  0  0  0  0  0  0  0999 V2000
  183.5150   -3.2584  159.5549 C   0  0  1  0  0  0  0  0  0  0  0  0
  184.9781   -2.8330  159.6388 C   0  0  1  0  0  0  0  0  0  0  0  0
  186.1635   -0.6129  162.5111 C   0  0  0  0  0  0  0  0  0  0  0  0
  181.3948   -2.3205  158.7141 C   0  0  0  0  0  0  0  0  0  0  0  0
  181.2292   -3.2045  157.6150 C   0  0  0  0  0  0  0  0  0  0  0  0
  179.9910   -3.3988  157.0443 C   0  0  0  0  0  0  0  0  0  0  0  0
  179.0109   -1.8751  158.5925 C   0  0  0  0  0  0  0  0  0  0  0  0
  180.2371   -1.6527  159.1920 C   0  0  0  0  0  0  0  0  0  0  0  0
  187.3712    1.4841  162.6972 C   0  0  0  0  0  0  0  0  0  0  0  0
  185.7555    0.7900  164.4471 C   0  0  0  0  0  0  0  0  0  0  0  0
  186.0182   -1.8003  161.5934 C   0  0  0  0  0  0  0  0  0  0  0  0
  185.5039   -0.4158  163.6780 C   0  0  0  0  0  0  0  0  0  0  0  0
  178.8323   -2.7481  157.5043 C   0  0  0  0  0  0  0  0  0  0  0  0
  177.5511   -3.0013  156.8513 C   0  0  0  0  0  0  0  0  0  0  0  0
  184.3034   -0.5626  160.2276 C   0  0  1  0  0  0  0  0  0  0  0  0
  182.8395   -0.9804  160.2146 C   0  0  1  0  0  0  0  0  0  0  0  0
  187.0638    0.3121  162.0440 N   0  0  0  0  0  0  0  0  0  0  0  0
  186.6888    1.6613  163.8844 N   0  0  0  0  0  0  0  0  0  0  0  0
  185.1517   -1.7093  160.5649 N   0  0  0  0  0  0  0  0  0  0  0  0
  182.6299   -2.1132  159.2948 N   0  0  0  0  0  0  0  0  0  0  0  0
  188.1812    2.2898  162.2554 O   0  0  0  0  0  0  0  0  0  0  0  0
  185.2151    1.0720  165.5209 O   0  0  0  0  0  0  0  0  0  0  0  0
  177.4249   -3.6913  155.8364 O   0  0  0  0  0  0  0  0  0  0  0  0
  186.7174   -2.7966  161.8350 O   0  0  0  0  0  0  0  0  0  0  0  0
  177.6228   -1.0040  159.2536 Cl  0  0  0  0  0  0  0  0  0  0  0  0
  183.4022   -3.9886  158.7399 H   0  0  0  0  0  0  0  0  0  0  0  0
  183.2240   -3.7246  160.5078 H   0  0  0  0  0  0  0  0  0  0  0  0
  185.5795   -3.6841  159.9907 H   0  0  0  0  0  0  0  0  0  0  0  0
  185.3215   -2.5299  158.6387 H   0  0  0  0  0  0  0  0  0  0  0  0
  182.0858   -3.7314  157.2214 H   0  0  0  0  0  0  0  0  0  0  0  0
  179.9064   -4.0785  156.2094 H   0  0  0  0  0  0  0  0  0  0  0  0
  180.3139   -0.9698  160.0251 H   0  0  0  0  0  0  0  0  0  0  0  0
  184.7962   -1.1500  164.0336 H   0  0  0  0  0  0  0  0  0  0  0  0
  176.6641   -2.5596  157.2808 H   0  0  0  0  0  0  0  0  0  0  0  0
  184.5824   -0.1836  159.2334 H   0  0  0  0  0  0  0  0  0  0  0  0
  184.4488    0.2302  160.9763 H   0  0  0  0  0  0  0  0  0  0  0  0
  182.5402   -1.2795  161.2300 H   0  0  0  0  0  0  0  0  0  0  0  0
  182.2240   -0.1300  159.8864 H   0  0  0  0  0  0  0  0  0  0  0  0
  187.6156    0.1196  161.2325 H   0  0  0  0  0  0  0  0  0  0  0  0
  186.8269    2.5320  164.3565 H   0  0  0  0  0  0  0  0  0  0  0  0
  1  2  1  0
  1 20  1  0
  1 26  1  6
  1 27  1  0
  2 19  1  0
  2 28  1  1
  2 29  1  0
  3 11  1  0
  3 12  2  0
  3 17  1  0
  4  5  2  0
  4  8  1  0
  4 20  1  0
  5  6  1  0
  5 30  1  0
  6 13  2  0
  6 31  1  0
  7  8  2  0
  7 13  1  0
  7 25  1  0
  8 32  1  0
  9 17  1  0
  9 18  1  0
  9 21  2  0
 10 12  1  0
 10 18  1  0
 10 22  2  0
 11 19  1  0
 11 24  2  0
 12 33  1  0
 13 14  1  0
 14 23  2  0
 14 34  1  0
 15 16  1  0
 15 19  1  0
 15 35  1  6
 15 36  1  0
 16 20  1  0
 16 37  1  1
 16 38  1  0
 17 39  1  0
 18 40  1  0
M  END
$$$$
