LIG(A-306)
     RDKit          3D

 46 50  0  0  1  0  0  0  0  0999 V2000
    9.4235    1.3903   21.0920 O   0  0  0  0  0  0  0  0  0  0  0  0
    9.0026    0.4515   21.7516 C   0  0  0  0  0  0  0  0  0  0  0  0
    9.7014    0.0346   23.0478 C   0  0  2  0  0  0  0  0  0  0  0  0
    9.1259    0.9487   24.1572 C   0  0  1  0  0  0  0  0  0  0  0  0
    9.9538    2.1968   24.3672 C   0  0  1  0  0  0  0  0  0  0  0  0
   11.3195    1.8796   24.6631 O   0  0  0  0  0  0  0  0  0  0  0  0
   11.2291    0.1738   22.9385 C   0  0  0  0  0  0  0  0  0  0  0  0
   11.9276    1.1153   23.7020 C   0  0  0  0  0  0  0  0  0  0  0  0
   13.2912    1.3119   23.5523 C   0  0  0  0  0  0  0  0  0  0  0  0
   13.9882    0.5421   22.6383 C   0  0  0  0  0  0  0  0  0  0  0  0
   11.9502   -0.6148   22.0415 C   0  0  0  0  0  0  0  0  0  0  0  0
   13.3127   -0.4162   21.9068 C   0  0  0  0  0  0  0  0  0  0  0  0
   14.1994   -1.3916   20.7669 Cl  0  0  0  0  0  0  0  0  0  0  0  0
    7.8644   -0.2241   21.3877 N   0  0  0  0  0  0  0  0  0  0  0  0
    7.5136   -1.5726   21.8602 C   0  0  1  0  0  0  0  0  0  0  0  0
    8.7072   -2.2867   22.4580 C   0  0  1  0  0  0  0  0  0  0  0  0
    9.4058   -1.4179   23.4959 C   0  0  2  0  0  0  0  0  0  0  0  0
    7.0946    0.2005   20.2534 C   0  0  0  0  0  0  0  0  0  0  0  0
    5.9176    0.9885   20.4352 C   0  0  0  0  0  0  0  0  0  0  0  0
    5.3984    1.3635   21.7053 C   0  0  0  0  0  0  0  0  0  0  0  0
    4.2845    2.1493   21.8051 C   0  0  0  0  0  0  0  0  0  0  0  0
    3.6376    2.6121   20.6627 C   0  0  0  0  0  0  0  0  0  0  0  0
    4.0897    2.2670   19.4195 C   0  0  0  0  0  0  0  0  0  0  0  0
    5.2257    1.4361   19.2708 C   0  0  0  0  0  0  0  0  0  0  0  0
    5.7210    1.0260   18.0100 C   0  0  0  0  0  0  0  0  0  0  0  0
    6.7949    0.2688   17.8439 N   0  0  0  0  0  0  0  0  0  0  0  0
    7.4536   -0.1161   18.9450 C   0  0  0  0  0  0  0  0  0  0  0  0
    8.1051    1.2459   23.8750 H   0  0  0  0  0  0  0  0  0  0  0  0
    9.0956    0.3828   25.1000 H   0  0  0  0  0  0  0  0  0  0  0  0
    9.9190    2.8065   23.4524 H   0  0  0  0  0  0  0  0  0  0  0  0
    9.5304    2.7692   25.2057 H   0  0  0  0  0  0  0  0  0  0  0  0
   13.8037    2.0573   24.1423 H   0  0  0  0  0  0  0  0  0  0  0  0
   15.0490    0.6885   22.4979 H   0  0  0  0  0  0  0  0  0  0  0  0
   11.4496   -1.3733   21.4578 H   0  0  0  0  0  0  0  0  0  0  0  0
    6.7286   -1.4885   22.6263 H   0  0  0  0  0  0  0  0  0  0  0  0
    7.1356   -2.1605   21.0109 H   0  0  0  0  0  0  0  0  0  0  0  0
    8.3660   -3.2155   22.9387 H   0  0  0  0  0  0  0  0  0  0  0  0
    9.4190   -2.5295   21.6554 H   0  0  0  0  0  0  0  0  0  0  0  0
    8.7664   -1.3748   24.3900 H   0  0  0  0  0  0  0  0  0  0  0  0
   10.3626   -1.8964   23.7521 H   0  0  0  0  0  0  0  0  0  0  0  0
    5.8914    1.0224   22.6036 H   0  0  0  0  0  0  0  0  0  0  0  0
    3.9024    2.4138   22.7801 H   0  0  0  0  0  0  0  0  0  0  0  0
    2.7710    3.2492   20.7593 H   0  0  0  0  0  0  0  0  0  0  0  0
    3.5753    2.6318   18.5428 H   0  0  0  0  0  0  0  0  0  0  0  0
    5.1898    1.3511   17.1276 H   0  0  0  0  0  0  0  0  0  0  0  0
    8.3366   -0.7225   18.8070 H   0  0  0  0  0  0  0  0  0  0  0  0
  1  2  2  0
  3  2  1  6
  2 14  1  0
  3  4  1  0
  3  7  1  0
  3 17  1  0
  4  5  1  0
  4 28  1  6
  4 29  1  0
  5  6  1  0
  5 30  1  6
  5 31  1  0
  6  8  1  0
  7  8  2  0
  7 11  1  0
  8  9  1  0
  9 10  2  0
  9 32  1  0
 10 12  1  0
 10 33  1  0
 11 12  2  0
 11 34  1  0
 12 13  1  0
 14 15  1  0
 14 18  1  0
 15 16  1  0
 15 35  1  1
 15 36  1  0
 16 17  1  0
 16 37  1  1
 16 38  1  0
 17 39  1  1
 17 40  1  0
 18 19  2  0
 18 27  1  0
 19 20  1  0
 19 24  1  0
 20 21  2  0
 20 41  1  0
 21 22  1  0
 21 42  1  0
 22 23  2  0
 22 43  1  0
 23 24  1  0
 23 44  1  0
 24 25  2  0
 25 26  1  0
 25 45  1  0
 26 27  2  0
 27 46  1  0
M  END
$$$$
