LIG(A-305)
     RDKit          3D

 25 26  0  0  0  0  0  0  0  0999 V2000
    9.1105    0.5449   21.0924 O   0  0  0  0  0  0  0  0  0  0  0  0
    8.4304   -0.4480   21.3515 C   0  0  0  0  0  0  0  0  0  0  0  0
    8.8284   -1.4130   22.4465 C   0  0  1  0  0  0  0  0  0  0  0  0
   10.0086   -0.7642   23.1063 C   0  0  0  0  0  0  0  0  0  0  0  0
   10.0079   -0.0291   24.2722 C   0  0  0  0  0  0  0  0  0  0  0  0
   11.2650    0.4917   24.6070 C   0  0  0  0  0  0  0  0  0  0  0  0
   11.5955   -0.8294   22.4250 S   0  0  0  0  0  0  0  0  0  0  0  0
   12.2058    0.1375   23.7029 C   0  0  0  0  0  0  0  0  0  0  0  0
   13.8709    0.5453   23.7396 Cl  0  0  0  0  0  0  0  0  0  0  0  0
    7.2802   -0.7569   20.7137 N   0  0  0  0  0  0  0  0  0  0  0  0
    6.6372   -0.0168   19.6988 C   0  0  0  0  0  0  0  0  0  0  0  0
    7.2230    0.1441   18.4437 C   0  0  0  0  0  0  0  0  0  0  0  0
    6.6410    0.8061   17.4377 N   0  0  0  0  0  0  0  0  0  0  0  0
    5.4391    1.3473   17.6659 C   0  0  0  0  0  0  0  0  0  0  0  0
    4.7803    1.2575   18.8780 C   0  0  0  0  0  0  0  0  0  0  0  0
    5.3883    0.5584   19.9079 C   0  0  0  0  0  0  0  0  0  0  0  0
    8.0062   -1.5471   23.1648 H   0  0  0  0  0  0  0  0  0  0  0  0
    9.1076   -2.3889   22.0224 H   0  0  0  0  0  0  0  0  0  0  0  0
    9.1230    0.1302   24.8707 H   0  0  0  0  0  0  0  0  0  0  0  0
   11.4583    1.0999   25.4783 H   0  0  0  0  0  0  0  0  0  0  0  0
    6.8336   -1.6070   20.9926 H   0  0  0  0  0  0  0  0  0  0  0  0
    8.1980   -0.2887   18.2749 H   0  0  0  0  0  0  0  0  0  0  0  0
    4.9580    1.8827   16.8608 H   0  0  0  0  0  0  0  0  0  0  0  0
    3.8149    1.7210   19.0185 H   0  0  0  0  0  0  0  0  0  0  0  0
    4.8969    0.4609   20.8647 H   0  0  0  0  0  0  0  0  0  0  0  0
  1  2  2  0
  2  3  1  0
  2 10  1  0
  3  4  1  0
  3 17  1  1
  3 18  1  0
  4  5  2  0
  4  7  1  0
  5  6  1  0
  5 19  1  0
  6  8  2  0
  6 20  1  0
  7  8  1  0
  8  9  1  0
 10 11  1  0
 10 21  1  0
 11 12  2  0
 11 16  1  0
 12 13  1  0
 12 22  1  0
 13 14  2  0
 14 15  1  0
 14 23  1  0
 15 16  2  0
 15 24  1  0
 16 25  1  0
M  END
$$$$
