LIG(A-306)
     RDKit          3D

 34 36  0  0  0  0  0  0  0  0999 V2000
    9.0105    0.8405   21.0821 O   0  0  0  0  0  0  0  0  0  0  0  0
    8.4660   -0.1915   21.4774 C   0  0  0  0  0  0  0  0  0  0  0  0
    9.0589   -1.0455   22.5783 C   0  0  1  0  0  0  0  0  0  0  0  0
   10.5130   -0.7302   22.8423 C   0  0  0  0  0  0  0  0  0  0  0  0
   11.5184   -1.4130   22.1768 C   0  0  0  0  0  0  0  0  0  0  0  0
   12.8529   -1.1238   22.4024 C   0  0  0  0  0  0  0  0  0  0  0  0
   10.8712    0.2567   23.7533 C   0  0  0  0  0  0  0  0  0  0  0  0
   12.2010    0.5582   23.9944 C   0  0  0  0  0  0  0  0  0  0  0  0
   13.1574   -0.1461   23.3131 C   0  0  0  0  0  0  0  0  0  0  0  0
   14.4634    0.0889   23.5993 F   0  0  0  0  0  0  0  0  0  0  0  0
    7.3054   -0.6591   20.9783 N   0  0  0  0  0  0  0  0  0  0  0  0
    6.5619   -0.1242   19.9174 C   0  0  0  0  0  0  0  0  0  0  0  0
    5.4521    0.7226   20.2202 C   0  0  0  0  0  0  0  0  0  0  0  0
    4.9713    0.9554   21.5373 C   0  0  0  0  0  0  0  0  0  0  0  0
    3.9156    1.7928   21.7620 C   0  0  0  0  0  0  0  0  0  0  0  0
    3.2839    2.4353   20.7027 C   0  0  0  0  0  0  0  0  0  0  0  0
    3.7021    2.2341   19.4189 C   0  0  0  0  0  0  0  0  0  0  0  0
    4.7952    1.3735   19.1414 C   0  0  0  0  0  0  0  0  0  0  0  0
    5.2793    1.1311   17.8326 C   0  0  0  0  0  0  0  0  0  0  0  0
    6.3048    0.3367   17.5512 N   0  0  0  0  0  0  0  0  0  0  0  0
    6.9175   -0.2717   18.5761 C   0  0  0  0  0  0  0  0  0  0  0  0
    8.4881   -0.8738   23.5028 H   0  0  0  0  0  0  0  0  0  0  0  0
    8.9754   -2.1029   22.2869 H   0  0  0  0  0  0  0  0  0  0  0  0
   11.2559   -2.1852   21.4690 H   0  0  0  0  0  0  0  0  0  0  0  0
   13.6325   -1.6538   21.8755 H   0  0  0  0  0  0  0  0  0  0  0  0
   10.0998    0.7971   24.2816 H   0  0  0  0  0  0  0  0  0  0  0  0
   12.4763    1.3278   24.7005 H   0  0  0  0  0  0  0  0  0  0  0  0
    6.9330   -1.4789   21.4131 H   0  0  0  0  0  0  0  0  0  0  0  0
    5.4474    0.4631   22.3725 H   0  0  0  0  0  0  0  0  0  0  0  0
    3.5685    1.9573   22.7713 H   0  0  0  0  0  0  0  0  0  0  0  0
    2.4548    3.0994   20.8975 H   0  0  0  0  0  0  0  0  0  0  0  0
    3.1960    2.7350   18.6068 H   0  0  0  0  0  0  0  0  0  0  0  0
    4.7821    1.6244   17.0105 H   0  0  0  0  0  0  0  0  0  0  0  0
    7.7472   -0.9240   18.3473 H   0  0  0  0  0  0  0  0  0  0  0  0
  1  2  2  0
  2  3  1  0
  2 11  1  0
  3  4  1  0
  3 22  1  1
  3 23  1  0
  4  5  2  0
  4  7  1  0
  5  6  1  0
  5 24  1  0
  6  9  2  0
  6 25  1  0
  7  8  2  0
  7 26  1  0
  8  9  1  0
  8 27  1  0
  9 10  1  0
 11 12  1  0
 11 28  1  0
 12 13  2  0
 12 21  1  0
 13 14  1  0
 13 18  1  0
 14 15  2  0
 14 29  1  0
 15 16  1  0
 15 30  1  0
 16 17  2  0
 16 31  1  0
 17 18  1  0
 17 32  1  0
 18 19  2  0
 19 20  1  0
 19 33  1  0
 20 21  2  0
 21 34  1  0
M  END
$$$$
