LIG(A-306)
     RDKit          3D

 54 58  0  0  1  0  0  0  0  0999 V2000
    9.0171    1.1316   21.2981 O   0  0  0  0  0  0  0  0  0  0  0  0
    8.5451    0.0585   21.6780 C   0  0  0  0  0  0  0  0  0  0  0  0
    7.4632   -0.5185   21.1019 N   0  0  0  0  0  0  0  0  0  0  0  0
    6.7022   -0.0275   20.0149 C   0  0  0  0  0  0  0  0  0  0  0  0
    5.5732    0.8114   20.2849 C   0  0  0  0  0  0  0  0  0  0  0  0
    5.0740    1.0702   21.5888 C   0  0  0  0  0  0  0  0  0  0  0  0
    3.9980    1.8901   21.7788 C   0  0  0  0  0  0  0  0  0  0  0  0
    3.3760    2.5062   20.6998 C   0  0  0  0  0  0  0  0  0  0  0  0
    3.8131    2.2843   19.4258 C   0  0  0  0  0  0  0  0  0  0  0  0
    4.9102    1.4224   19.1809 C   0  0  0  0  0  0  0  0  0  0  0  0
    5.3893    1.1275   17.8799 C   0  0  0  0  0  0  0  0  0  0  0  0
    6.4174    0.3306   17.6269 N   0  0  0  0  0  0  0  0  0  0  0  0
    7.0443   -0.2234   18.6749 C   0  0  0  0  0  0  0  0  0  0  0  0
    9.1301   -0.7095   22.8680 C   0  0  1  0  0  0  0  0  0  0  0  0
   10.6021   -0.3804   23.0051 C   0  0  0  0  0  0  0  0  0  0  0  0
   11.0139    0.7505   23.7202 C   0  0  0  0  0  0  0  0  0  0  0  0
   12.3619    1.1166   23.7343 C   0  0  0  0  0  0  0  0  0  0  0  0
   13.2960    0.3728   23.0363 C   0  0  0  0  0  0  0  0  0  0  0  0
   11.5602   -1.1463   22.3371 C   0  0  0  0  0  0  0  0  0  0  0  0
   12.8841   -0.7462   22.3472 C   0  0  0  0  0  0  0  0  0  0  0  0
   14.0503   -1.6430   21.4122 Cl  0  0  0  0  0  0  0  0  0  0  0  0
    8.3910   -0.2897   24.1390 C   0  0  1  0  0  0  0  0  0  0  0  0
    8.7549    1.0753   24.5291 N   0  0  0  0  0  0  0  0  0  0  0  0
   10.0398    1.5634   24.4722 C   0  0  0  0  0  0  0  0  0  0  0  0
   10.3417    2.6444   24.9443 O   0  0  0  0  0  0  0  0  0  0  0  0
    7.6468    1.9642   24.8401 C   0  0  1  0  0  0  0  0  0  0  0  0
    7.7197    3.3772   24.2822 C   0  0  0  0  0  0  0  0  0  0  0  0
    7.8516    4.3442   25.0303 O   0  0  0  0  0  0  0  0  0  0  0  0
    7.6908    3.4913   22.9502 N   0  0  0  0  0  0  0  0  0  0  0  0
    6.8147    4.4233   22.2372 C   0  0  1  0  0  0  0  0  0  0  0  0
    5.5396    4.9552   22.9632 C   0  0  1  0  0  0  0  0  0  0  0  0
    5.8746    6.3312   22.6483 O   0  0  0  0  0  0  0  0  0  0  0  0
    7.2066    5.9373   22.2323 C   0  0  1  0  0  0  0  0  0  0  0  0
    7.1686   -1.3920   21.4895 H   0  0  0  0  0  0  0  0  0  0  0  0
    5.5519    0.6125   22.4424 H   0  0  0  0  0  0  0  0  0  0  0  0
    3.6267    2.0613   22.7784 H   0  0  0  0  0  0  0  0  0  0  0  0
    2.5388    3.1668   20.8707 H   0  0  0  0  0  0  0  0  0  0  0  0
    3.3183    2.7699   18.5978 H   0  0  0  0  0  0  0  0  0  0  0  0
    4.8838    1.5817   17.0405 H   0  0  0  0  0  0  0  0  0  0  0  0
    7.8812   -0.8734   18.4660 H   0  0  0  0  0  0  0  0  0  0  0  0
    9.0033   -1.7903   22.7071 H   0  0  0  0  0  0  0  0  0  0  0  0
   12.6765    1.9854   24.2934 H   0  0  0  0  0  0  0  0  0  0  0  0
   14.3355    0.6659   23.0318 H   0  0  0  0  0  0  0  0  0  0  0  0
   11.2689   -2.0460   21.8155 H   0  0  0  0  0  0  0  0  0  0  0  0
    7.3071   -0.3354   23.9570 H   0  0  0  0  0  0  0  0  0  0  0  0
    8.6554   -0.9797   24.9538 H   0  0  0  0  0  0  0  0  0  0  0  0
    6.7290    1.5000   24.4499 H   0  0  0  0  0  0  0  0  0  0  0  0
    7.5811    2.0425   25.9353 H   0  0  0  0  0  0  0  0  0  0  0  0
    8.3000    2.9089   22.4121 H   0  0  0  0  0  0  0  0  0  0  0  0
    6.5732    4.0774   21.2214 H   0  0  0  0  0  0  0  0  0  0  0  0
    4.5980    4.6147   22.5078 H   0  0  0  0  0  0  0  0  0  0  0  0
    5.5239    4.7404   24.0418 H   0  0  0  0  0  0  0  0  0  0  0  0
    7.9905    6.1932   22.9603 H   0  0  0  0  0  0  0  0  0  0  0  0
    7.4899    6.3172   21.2397 H   0  0  0  0  0  0  0  0  0  0  0  0
  1  2  2  0
  2  3  1  0
  2 14  1  0
  3  4  1  0
  3 34  1  0
  4  5  2  0
  4 13  1  0
  5  6  1  0
  5 10  1  0
  6  7  2  0
  6 35  1  0
  7  8  1  0
  7 36  1  0
  8  9  2  0
  8 37  1  0
  9 10  1  0
  9 38  1  0
 10 11  2  0
 11 12  1  0
 11 39  1  0
 12 13  2  0
 13 40  1  0
 14 15  1  0
 14 22  1  0
 14 41  1  6
 15 16  2  0
 15 19  1  0
 16 17  1  0
 16 24  1  0
 17 18  2  0
 17 42  1  0
 18 20  1  0
 18 43  1  0
 19 20  2  0
 19 44  1  0
 20 21  1  0
 22 23  1  0
 22 45  1  6
 22 46  1  0
 23 24  1  0
 23 26  1  0
 24 25  2  0
 26 27  1  0
 26 47  1  6
 26 48  1  0
 27 28  2  0
 27 29  1  0
 29 30  1  0
 29 49  1  0
 30 31  1  0
 30 33  1  0
 30 50  1  6
 31 32  1  0
 31 51  1  6
 31 52  1  0
 32 33  1  0
 33 53  1  1
 33 54  1  0
M  END
$$$$
