LIG(A-305)
     RDKit          3D

 32 34  0  0  0  0  0  0  0  0999 V2000
    8.8082    0.6012   20.9010 O   0  0  0  0  0  0  0  0  0  0  0  0
    8.2282   -0.2668   21.5550 C   0  0  0  0  0  0  0  0  0  0  0  0
    8.9712   -1.2378   22.4510 C   0  0  1  0  0  0  0  0  0  0  0  0
   10.3902   -0.8048   22.7430 C   0  0  0  0  0  0  0  0  0  0  0  0
   10.6622    0.2813   23.5660 C   0  0  0  0  0  0  0  0  0  0  0  0
   11.9652    0.7253   23.7480 C   0  0  0  0  0  0  0  0  0  0  0  0
   13.0122    0.0932   23.0960 C   0  0  0  0  0  0  0  0  0  0  0  0
   11.4442   -1.4588   22.1250 C   0  0  0  0  0  0  0  0  0  0  0  0
   12.7272   -0.9888   22.2840 C   0  0  0  0  0  0  0  0  0  0  0  0
   14.0082   -1.7368   21.3690 Cl  0  0  0  0  0  0  0  0  0  0  0  0
    6.8852   -0.4078   21.6011 N   0  0  0  0  0  0  0  0  0  0  0  0
    5.9082    0.3772   20.9411 C   0  0  0  0  0  0  0  0  0  0  0  0
    5.9712    0.5222   19.5440 C   0  0  0  0  0  0  0  0  0  0  0  0
    6.7982    0.0802   18.4830 C   0  0  0  0  0  0  0  0  0  0  0  0
    6.3932    0.5572   17.3220 N   0  0  0  0  0  0  0  0  0  0  0  0
    5.2922    1.3222   17.5910 N   0  0  0  0  0  0  0  0  0  0  0  0
    4.9972    1.3242   18.9180 C   0  0  0  0  0  0  0  0  0  0  0  0
    3.9852    1.9512   19.6351 C   0  0  0  0  0  0  0  0  0  0  0  0
    3.9342    1.7792   21.0101 C   0  0  0  0  0  0  0  0  0  0  0  0
    4.8842    1.0062   21.6591 C   0  0  0  0  0  0  0  0  0  0  0  0
    8.4274   -1.3221   23.4035 H   0  0  0  0  0  0  0  0  0  0  0  0
    8.9991   -2.2200   21.9566 H   0  0  0  0  0  0  0  0  0  0  0  0
    9.8510    0.7858   24.0698 H   0  0  0  0  0  0  0  0  0  0  0  0
   12.1630    1.5643   24.3986 H   0  0  0  0  0  0  0  0  0  0  0  0
   14.0281    0.4383   23.2195 H   0  0  0  0  0  0  0  0  0  0  0  0
   11.2589   -2.3345   21.5206 H   0  0  0  0  0  0  0  0  0  0  0  0
    6.5399   -1.1553   22.1686 H   0  0  0  0  0  0  0  0  0  0  0  0
    7.6538   -0.5668   18.6088 H   0  0  0  0  0  0  0  0  0  0  0  0
    4.7684    1.8179   16.8949 H   0  0  0  0  0  0  0  0  0  0  0  0
    3.2513    2.5618   19.1302 H   0  0  0  0  0  0  0  0  0  0  0  0
    3.1477    2.2515   21.5801 H   0  0  0  0  0  0  0  0  0  0  0  0
    4.8338    0.8879   22.7314 H   0  0  0  0  0  0  0  0  0  0  0  0
  1  2  2  0
  2  3  1  0
  2 11  1  0
  3  4  1  0
  3 21  1  1
  3 22  1  0
  4  5  2  0
  4  8  1  0
  5  6  1  0
  5 23  1  0
  6  7  2  0
  6 24  1  0
  7  9  1  0
  7 25  1  0
  8  9  2  0
  8 26  1  0
  9 10  1  0
 11 12  1  0
 11 27  1  0
 12 13  2  0
 12 20  1  0
 13 14  1  0
 13 17  1  0
 14 15  2  0
 14 28  1  0
 15 16  1  0
 16 17  1  0
 16 29  1  0
 17 18  2  0
 18 19  1  0
 18 30  1  0
 19 20  2  0
 19 31  1  0
 20 32  1  0
M  END
$$$$
