LIG(A-305)
     RDKit          3D

 20 20  0  0  0  0  0  0  0  0999 V2000
    8.5355   -0.0767   27.4362 C   0  0  1  0  0  0  0  0  0  0  0  0
    9.0904   -0.6238   26.1392 C   0  0  1  0  0  0  0  0  0  0  0  0
   11.0513   -0.2609   24.6290 C   0  0  0  0  0  0  0  0  0  0  0  0
   10.6952   -1.3909   23.9041 C   0  0  0  0  0  0  0  0  0  0  0  0
   11.4821   -1.8049   22.8480 C   0  0  0  0  0  0  0  0  0  0  0  0
   12.6141   -1.0719   22.5399 C   0  0  0  0  0  0  0  0  0  0  0  0
   13.5060   -1.5120   21.3869 C   0  0  0  0  0  0  0  0  0  0  0  0
   12.9132    0.0500   23.3099 C   0  0  0  0  0  0  0  0  0  0  0  0
   10.2264    0.1792   25.7281 N   0  0  0  0  0  0  0  0  0  0  0  0
   14.1870   -1.8150   20.5298 N   0  0  0  0  0  0  0  0  0  0  0  0
   12.1343    0.4271   24.3230 N   0  0  0  0  0  0  0  0  0  0  0  0
    7.6736   -0.6831   27.7516 H   0  0  0  0  0  0  0  0  0  0  0  0
    9.3138   -0.1144   28.2127 H   0  0  0  0  0  0  0  0  0  0  0  0
    8.2160    0.9653   27.2876 H   0  0  0  0  0  0  0  0  0  0  0  0
    9.4109   -1.6656   26.2869 H   0  0  0  0  0  0  0  0  0  0  0  0
    8.3131   -0.5859   25.3618 H   0  0  0  0  0  0  0  0  0  0  0  0
    9.8053   -1.9440   24.1657 H   0  0  0  0  0  0  0  0  0  0  0  0
   11.2196   -2.6819   22.2749 H   0  0  0  0  0  0  0  0  0  0  0  0
   13.7967    0.6273   23.0803 H   0  0  0  0  0  0  0  0  0  0  0  0
   10.7009    0.6688   26.4596 H   0  0  0  0  0  0  0  0  0  0  0  0
  1  2  1  0
  1 12  1  1
  1 13  1  0
  1 14  1  0
  2  9  1  0
  2 15  1  1
  2 16  1  0
  3  4  2  0
  3  9  1  0
  3 11  1  0
  4  5  1  0
  4 17  1  0
  5  6  2  0
  5 18  1  0
  6  7  1  0
  6  8  1  0
  7 10  3  0
  8 11  2  0
  8 19  1  0
  9 20  1  0
M  END
$$$$
