LIG(A-305)
     RDKit          3D

 23 23  0  0  0  0  0  0  0  0999 V2000
    6.9051    2.7021   -6.5296 N   0  0  0  0  0  0  0  0  0  0  0  0
    4.4650   -2.0046   -8.3620 C   0  0  1  0  0  0  0  0  0  0  0  0
    4.6691    2.3146   -5.7373 O   0  0  0  0  0  0  0  0  0  0  0  0
    5.9121   -1.7488   -8.1522 C   0  0  0  0  0  0  0  0  0  0  0  0
    6.7809   -2.8190   -8.3782 C   0  0  0  0  0  0  0  0  0  0  0  0
    8.1549   -2.6293   -8.2244 C   0  0  0  0  0  0  0  0  0  0  0  0
    8.6882   -1.3913   -7.8295 C   0  0  0  0  0  0  0  0  0  0  0  0
    7.8174   -0.3321   -7.6045 C   0  0  0  0  0  0  0  0  0  0  0  0
    6.4284   -0.4819   -7.7653 C   0  0  0  0  0  0  0  0  0  0  0  0
    5.5706    0.7513   -7.5703 C   0  0  1  0  0  0  0  0  0  0  0  0
    8.9807   -3.6374   -8.4894 F   0  0  0  0  0  0  0  0  0  0  0  0
    6.4699    0.7283   -5.1494 O   0  0  0  0  0  0  0  0  0  0  0  0
    5.8329    1.5853   -6.0794 S   0  0  1  0  0  0  0  0  0  0  0  0
    6.4824    3.3241   -7.1887 H   0  0  0  0  0  0  0  0  0  0  0  0
    7.5440    2.8731   -5.7795 H   0  0  0  0  0  0  0  0  0  0  0  0
    4.3184   -3.0485   -8.6761 H   0  0  0  0  0  0  0  0  0  0  0  0
    3.9211   -1.8244   -7.4231 H   0  0  0  0  0  0  0  0  0  0  0  0
    4.0829   -1.3299   -9.1423 H   0  0  0  0  0  0  0  0  0  0  0  0
    6.3929   -3.7841   -8.6692 H   0  0  0  0  0  0  0  0  0  0  0  0
    9.7533   -1.2652   -7.7034 H   0  0  0  0  0  0  0  0  0  0  0  0
    8.2151    0.6247   -7.3001 H   0  0  0  0  0  0  0  0  0  0  0  0
    5.7808    1.4487   -8.3946 H   0  0  0  0  0  0  0  0  0  0  0  0
    4.5150    0.4442   -7.6100 H   0  0  0  0  0  0  0  0  0  0  0  0
 13  1  1  6
  1 14  1  0
  1 15  1  0
  2  4  1  0
  2 16  1  6
  2 17  1  0
  2 18  1  0
  3 13  2  0
  4  5  2  0
  4  9  1  0
  5  6  1  0
  5 19  1  0
  6  7  2  0
  6 11  1  0
  7  8  1  0
  7 20  1  0
  8  9  2  0
  8 21  1  0
  9 10  1  0
 10 13  1  0
 10 22  1  6
 10 23  1  0
 12 13  2  0
M  END
$$$$
