LIG(A-305)
     RDKit          3D

 38 40  0  0  0  0  0  0  0  0999 V2000
   11.4834    3.4001   24.4112 O   0  0  0  0  0  0  0  0  0  0  0  0
   11.4832    3.8111   23.2622 C   0  0  0  0  0  0  0  0  0  0  0  0
   10.9088    3.1613   22.2284 N   0  0  0  0  0  0  0  0  0  0  0  0
   10.3856    1.8633   22.1784 C   0  0  0  0  0  0  0  0  0  0  0  0
    9.6943    1.6115   21.0546 N   0  0  0  0  0  0  0  0  0  0  0  0
    9.2491    0.3605   20.8696 C   0  0  0  0  0  0  0  0  0  0  0  0
    9.4532   -0.6735   21.7655 C   0  0  0  0  0  0  0  0  0  0  0  0
   10.6228    0.8963   23.1633 C   0  0  0  0  0  0  0  0  0  0  0  0
   10.1406   -0.3837   22.9354 C   0  0  0  0  0  0  0  0  0  0  0  0
   10.3807   -1.2388   23.9803 O   0  0  0  0  0  0  0  0  0  0  0  0
    9.9225   -2.5887   23.8743 C   0  0  1  0  0  0  0  0  0  0  0  0
   12.1492    5.1201   22.8931 C   0  0  1  0  0  0  0  0  0  0  0  0
   11.3715    6.3182   23.3884 C   0  0  0  0  0  0  0  0  0  0  0  0
   11.7429    6.9740   24.5363 C   0  0  0  0  0  0  0  0  0  0  0  0
   11.0531    8.1261   24.9826 C   0  0  0  0  0  0  0  0  0  0  0  0
    9.9570    8.6013   24.2209 C   0  0  0  0  0  0  0  0  0  0  0  0
    9.5886    7.8914   23.0559 C   0  0  0  0  0  0  0  0  0  0  0  0
   10.2814    6.7853   22.6637 C   0  0  0  0  0  0  0  0  0  0  0  0
   11.4225    8.8260   26.1595 C   0  0  0  0  0  0  0  0  0  0  0  0
   10.7448    9.9491   26.5397 C   0  0  0  0  0  0  0  0  0  0  0  0
    9.6766   10.4182   25.7900 C   0  0  0  0  0  0  0  0  0  0  0  0
    9.2812    9.7673   24.6551 C   0  0  0  0  0  0  0  0  0  0  0  0
   10.8482    3.6808   21.3761 H   0  0  0  0  0  0  0  0  0  0  0  0
    8.6975    0.1470   19.9661 H   0  0  0  0  0  0  0  0  0  0  0  0
    9.0907   -1.6703   21.5618 H   0  0  0  0  0  0  0  0  0  0  0  0
   11.1616    1.1385   24.0674 H   0  0  0  0  0  0  0  0  0  0  0  0
   10.1913   -3.1404   24.7872 H   0  0  0  0  0  0  0  0  0  0  0  0
    8.8296   -2.5962   23.7500 H   0  0  0  0  0  0  0  0  0  0  0  0
   10.3938   -3.0685   23.0039 H   0  0  0  0  0  0  0  0  0  0  0  0
   13.1552    5.1429   23.3374 H   0  0  0  0  0  0  0  0  0  0  0  0
   12.2307    5.1792   21.7977 H   0  0  0  0  0  0  0  0  0  0  0  0
   12.5789    6.6028   25.1105 H   0  0  0  0  0  0  0  0  0  0  0  0
    8.7475    8.2296   22.4691 H   0  0  0  0  0  0  0  0  0  0  0  0
    9.9767    6.2604   21.7703 H   0  0  0  0  0  0  0  0  0  0  0  0
   12.2460    8.4682   26.7596 H   0  0  0  0  0  0  0  0  0  0  0  0
   11.0436   10.4771   27.4332 H   0  0  0  0  0  0  0  0  0  0  0  0
    9.1516   11.3075   26.1063 H   0  0  0  0  0  0  0  0  0  0  0  0
    8.4460   10.1458   24.0844 H   0  0  0  0  0  0  0  0  0  0  0  0
  1  2  2  0
  2  3  1  0
  2 12  1  0
  3  4  1  0
  3 23  1  0
  4  5  2  0
  4  8  1  0
  5  6  1  0
  6  7  2  0
  6 24  1  0
  7  9  1  0
  7 25  1  0
  8  9  2  0
  8 26  1  0
  9 10  1  0
 10 11  1  0
 11 27  1  1
 11 28  1  0
 11 29  1  0
 12 13  1  0
 12 30  1  1
 12 31  1  0
 13 14  2  0
 13 18  1  0
 14 15  1  0
 14 32  1  0
 15 16  2  0
 15 19  1  0
 16 17  1  0
 16 22  1  0
 17 18  2  0
 17 33  1  0
 18 34  1  0
 19 20  2  0
 19 35  1  0
 20 21  1  0
 20 36  1  0
 21 22  2  0
 21 37  1  0
 22 38  1  0
M  END
$$$$
