LIG(A-306)
     RDKit          3D

 51 54  0  0  1  0  0  0  0  0999 V2000
   14.0587   -1.5376   21.3734 Cl  0  0  0  0  0  0  0  0  0  0  0  0
   12.8191   -0.8120   22.3617 C   0  0  0  0  0  0  0  0  0  0  0  0
   11.5182   -1.2630   22.2440 C   0  0  0  0  0  0  0  0  0  0  0  0
   13.1579    0.1857   23.2460 C   0  0  0  0  0  0  0  0  0  0  0  0
   12.1767    0.7228   24.0596 C   0  0  0  0  0  0  0  0  0  0  0  0
   10.8537    0.2929   23.9717 C   0  0  0  0  0  0  0  0  0  0  0  0
    9.8043    0.9233   24.8587 C   0  0  1  0  0  0  0  0  0  0  0  0
    8.4408    0.7096   24.3503 N   0  0  2  0  0  0  0  0  0  0  0  0
    7.4075    1.2917   25.2026 C   0  0  1  0  0  0  0  0  0  0  0  0
    6.7463    2.5303   24.6205 C   0  0  0  0  0  0  0  0  0  0  0  0
    5.7373    3.0013   25.1425 O   0  0  0  0  0  0  0  0  0  0  0  0
    7.3029    3.0564   23.5328 N   0  0  0  0  0  0  0  0  0  0  0  0
    6.7529    4.2185   22.8582 C   0  0  1  0  0  0  0  0  0  0  0  0
   10.5170   -0.6942   23.0303 C   0  0  0  0  0  0  0  0  0  0  0  0
    9.0598   -1.0633   22.8080 C   0  0  1  0  0  0  0  0  0  0  0  0
    8.2241   -0.7001   24.0348 C   0  0  1  0  0  0  0  0  0  0  0  0
    8.5566   -0.2394   21.6196 C   0  0  0  0  0  0  0  0  0  0  0  0
    9.0399    0.8548   21.3262 O   0  0  0  0  0  0  0  0  0  0  0  0
    7.5058   -0.7844   20.9604 N   0  0  0  0  0  0  0  0  0  0  0  0
    6.7702   -0.2233   19.8937 C   0  0  0  0  0  0  0  0  0  0  0  0
    5.6453    0.6000   20.2034 C   0  0  0  0  0  0  0  0  0  0  0  0
    5.1809    0.8317   21.5210 C   0  0  0  0  0  0  0  0  0  0  0  0
    4.1230    1.6577   21.7607 C   0  0  0  0  0  0  0  0  0  0  0  0
    3.4972    2.2951   20.7045 C   0  0  0  0  0  0  0  0  0  0  0  0
    2.2314    3.4424   21.0480 Cl  0  0  0  0  0  0  0  0  0  0  0  0
    3.8745    2.0964   19.4067 C   0  0  0  0  0  0  0  0  0  0  0  0
    4.9585    1.2332   19.1263 C   0  0  0  0  0  0  0  0  0  0  0  0
    5.4149    0.9685   17.8110 C   0  0  0  0  0  0  0  0  0  0  0  0
    6.4498    0.1891   17.5240 N   0  0  0  0  0  0  0  0  0  0  0  0
    7.1024   -0.3775   18.5477 C   0  0  0  0  0  0  0  0  0  0  0  0
   11.2782   -2.0519   21.5465 H   0  0  0  0  0  0  0  0  0  0  0  0
   14.1749    0.5444   23.3042 H   0  0  0  0  0  0  0  0  0  0  0  0
   12.4400    1.4879   24.7749 H   0  0  0  0  0  0  0  0  0  0  0  0
    9.8800    0.4829   25.8639 H   0  0  0  0  0  0  0  0  0  0  0  0
    9.9943    2.0052   24.9171 H   0  0  0  0  0  0  0  0  0  0  0  0
    8.3912    1.1995   23.4801 H   0  0  0  0  0  0  0  0  0  0  0  0
    6.6300    0.5319   25.3706 H   0  0  0  0  0  0  0  0  0  0  0  0
    7.8667    1.5652   26.1641 H   0  0  0  0  0  0  0  0  0  0  0  0
    8.1321    2.6351   23.1656 H   0  0  0  0  0  0  0  0  0  0  0  0
    7.3791    4.4693   21.9893 H   0  0  0  0  0  0  0  0  0  0  0  0
    5.7298    3.9964   22.5207 H   0  0  0  0  0  0  0  0  0  0  0  0
    6.7327    5.0707   23.5535 H   0  0  0  0  0  0  0  0  0  0  0  0
    8.9672   -2.1376   22.5904 H   0  0  0  0  0  0  0  0  0  0  0  0
    8.5313   -1.3217   24.8887 H   0  0  0  0  0  0  0  0  0  0  0  0
    7.1589   -0.8718   23.8207 H   0  0  0  0  0  0  0  0  0  0  0  0
    7.2169   -1.6918   21.2655 H   0  0  0  0  0  0  0  0  0  0  0  0
    5.6733    0.3457   22.3504 H   0  0  0  0  0  0  0  0  0  0  0  0
    3.7749    1.8137   22.7711 H   0  0  0  0  0  0  0  0  0  0  0  0
    3.3504    2.5933   18.6037 H   0  0  0  0  0  0  0  0  0  0  0  0
    4.8868    1.4305   16.9899 H   0  0  0  0  0  0  0  0  0  0  0  0
    7.9515   -1.0021   18.3125 H   0  0  0  0  0  0  0  0  0  0  0  0
  1  2  1  0
  2  3  2  0
  2  4  1  0
  3 14  1  0
  3 31  1  0
  4  5  2  0
  4 32  1  0
  5  6  1  0
  5 33  1  0
  6  7  1  0
  6 14  2  0
  7  8  1  0
  7 34  1  1
  7 35  1  0
  8  9  1  0
  8 16  1  0
  8 36  1  6
  9 10  1  0
  9 37  1  1
  9 38  1  0
 10 11  2  0
 10 12  1  0
 12 13  1  0
 12 39  1  0
 13 40  1  6
 13 41  1  0
 13 42  1  0
 14 15  1  0
 15 16  1  0
 15 17  1  0
 15 43  1  6
 16 44  1  1
 16 45  1  0
 17 18  2  0
 17 19  1  0
 19 20  1  0
 19 46  1  0
 20 21  2  0
 20 30  1  0
 21 22  1  0
 21 27  1  0
 22 23  2  0
 22 47  1  0
 23 24  1  0
 23 48  1  0
 24 25  1  0
 24 26  2  0
 26 27  1  0
 26 49  1  0
 27 28  2  0
 28 29  1  0
 28 50  1  0
 29 30  2  0
 30 51  1  0
M  CHG  1   8   1
M  END
$$$$
