LIG(A-305)
     RDKit          3D

 28 29  0  0  1  0  0  0  0  0999 V2000
   13.5926   -0.5447   21.3481 F   0  0  0  0  0  0  0  0  0  0  0  0
   12.7185   -1.3276   22.1101 C   0  0  1  0  0  0  0  0  0  0  0  0
   11.5205   -0.4906   22.4710 C   0  0  2  0  0  0  0  0  0  0  0  0
   10.5855   -0.8575   23.5750 C   0  0  1  0  0  0  0  0  0  0  0  0
   10.1705   -1.0935   22.1440 C   0  0  1  0  0  0  0  0  0  0  0  0
    9.2416   -0.1095   21.4590 C   0  0  0  0  0  0  0  0  0  0  0  0
    9.6016    1.0324   21.1919 O   0  0  0  0  0  0  0  0  0  0  0  0
    8.0386   -0.6225   21.1149 N   0  0  0  0  0  0  0  0  0  0  0  0
    7.1306   -0.0595   20.1869 C   0  0  0  0  0  0  0  0  0  0  0  0
    5.9836    0.6145   20.6459 C   0  0  0  0  0  0  0  0  0  0  0  0
    5.6706    0.7506   22.1138 C   0  0  1  0  0  0  0  0  0  0  0  0
    7.3486   -0.1435   18.8109 C   0  0  0  0  0  0  0  0  0  0  0  0
    6.5247    0.3825   17.8999 N   0  0  0  0  0  0  0  0  0  0  0  0
    5.4397    1.0205   18.3488 C   0  0  0  0  0  0  0  0  0  0  0  0
    5.1347    1.1576   19.6888 C   0  0  0  0  0  0  0  0  0  0  0  0
   12.3977   -2.2022   21.5251 H   0  0  0  0  0  0  0  0  0  0  0  0
   13.2253   -1.6651   23.0262 H   0  0  0  0  0  0  0  0  0  0  0  0
   11.6167    0.5858   22.2656 H   0  0  0  0  0  0  0  0  0  0  0  0
   10.8160   -1.7128   24.2272 H   0  0  0  0  0  0  0  0  0  0  0  0
   10.0965   -0.0680   24.1646 H   0  0  0  0  0  0  0  0  0  0  0  0
   10.1557   -2.1335   21.7858 H   0  0  0  0  0  0  0  0  0  0  0  0
    7.7658   -1.4773   21.5564 H   0  0  0  0  0  0  0  0  0  0  0  0
    6.4882    1.2891   22.6153 H   0  0  0  0  0  0  0  0  0  0  0  0
    4.7322    1.3109   22.2381 H   0  0  0  0  0  0  0  0  0  0  0  0
    5.5625   -0.2492   22.5598 H   0  0  0  0  0  0  0  0  0  0  0  0
    8.2305   -0.6615   18.4638 H   0  0  0  0  0  0  0  0  0  0  0  0
    4.7648    1.4523   17.6246 H   0  0  0  0  0  0  0  0  0  0  0  0
    4.2414    1.6838   19.9913 H   0  0  0  0  0  0  0  0  0  0  0  0
  1  2  1  0
  2  3  1  0
  2 16  1  6
  2 17  1  0
  3  4  1  0
  3  5  1  0
  3 18  1  6
  4  5  1  0
  4 19  1  1
  4 20  1  0
  5  6  1  0
  5 21  1  1
  6  7  2  0
  6  8  1  0
  8  9  1  0
  8 22  1  0
  9 10  2  0
  9 12  1  0
 10 11  1  0
 10 15  1  0
 11 23  1  1
 11 24  1  0
 11 25  1  0
 12 13  2  0
 12 26  1  0
 13 14  1  0
 14 15  2  0
 14 27  1  0
 15 28  1  0
M  END
$$$$
