LIG(A-305)
     RDKit          3D

 45 48  0  0  1  0  0  0  0  0999 V2000
    9.7562    0.5944   20.8702 O   0  0  0  0  0  0  0  0  0  0  0  0
    8.9564   -0.0586   21.5262 C   0  0  0  0  0  0  0  0  0  0  0  0
    9.3965   -0.8365   22.7752 C   0  0  1  0  0  0  0  0  0  0  0  0
   10.8775   -0.5084   22.8321 C   0  0  0  0  0  0  0  0  0  0  0  0
   11.7485   -1.1453   21.9551 C   0  0  0  0  0  0  0  0  0  0  0  0
   13.0735   -0.7742   21.9319 C   0  0  0  0  0  0  0  0  0  0  0  0
   14.1615   -1.6401   20.8909 Cl  0  0  0  0  0  0  0  0  0  0  0  0
   13.5664    0.2279   22.7409 C   0  0  0  0  0  0  0  0  0  0  0  0
   12.7124    0.8718   23.6189 C   0  0  0  0  0  0  0  0  0  0  0  0
   11.3835    0.4877   23.6710 C   0  0  0  0  0  0  0  0  0  0  0  0
   10.6255    1.0997   24.6421 O   0  0  0  0  0  0  0  0  0  0  0  0
    9.2035    1.0955   24.4072 C   0  0  1  0  0  0  0  0  0  0  0  0
    8.6896   -0.2796   24.0353 C   0  0  2  0  0  0  0  0  0  0  0  0
    9.1727   -2.3596   22.6923 C   0  0  1  0  0  0  0  0  0  0  0  0
    7.7567   -2.7247   22.6754 N   0  0  1  0  0  0  0  0  0  0  0  0
    7.6453    0.0732   21.3243 N   0  0  0  0  0  0  0  0  0  0  0  0
    6.9172    0.3081   20.1484 C   0  0  0  0  0  0  0  0  0  0  0  0
    5.5782    0.7520   20.3225 C   0  0  0  0  0  0  0  0  0  0  0  0
    4.9673    0.9149   21.5935 C   0  0  0  0  0  0  0  0  0  0  0  0
    3.7392    1.4968   21.7126 C   0  0  0  0  0  0  0  0  0  0  0  0
    3.0711    1.9657   20.5936 C   0  0  0  0  0  0  0  0  0  0  0  0
    3.6150    1.8247   19.3486 C   0  0  0  0  0  0  0  0  0  0  0  0
    4.8660    1.1868   19.1745 C   0  0  0  0  0  0  0  0  0  0  0  0
    5.4920    1.0189   17.9105 C   0  0  0  0  0  0  0  0  0  0  0  0
    6.7080    0.5040   17.7404 N   0  0  0  0  0  0  0  0  0  0  0  0
    7.3991    0.1801   18.8414 C   0  0  0  0  0  0  0  0  0  0  0  0
   11.3887   -1.9237   21.2984 H   0  0  0  0  0  0  0  0  0  0  0  0
   14.6084    0.5073   22.6897 H   0  0  0  0  0  0  0  0  0  0  0  0
   13.0781    1.6640   24.2554 H   0  0  0  0  0  0  0  0  0  0  0  0
    8.6922    1.4293   25.3222 H   0  0  0  0  0  0  0  0  0  0  0  0
    8.9779    1.7920   23.5863 H   0  0  0  0  0  0  0  0  0  0  0  0
    8.8681   -0.9658   24.8763 H   0  0  0  0  0  0  0  0  0  0  0  0
    7.6094   -0.2146   23.8380 H   0  0  0  0  0  0  0  0  0  0  0  0
    9.6432   -2.7342   21.7713 H   0  0  0  0  0  0  0  0  0  0  0  0
    9.6471   -2.8324   23.5649 H   0  0  0  0  0  0  0  0  0  0  0  0
    7.6669   -3.7049   22.4987 H   0  0  0  0  0  0  0  0  0  0  0  0
    7.3458   -2.5067   23.5606 H   0  0  0  0  0  0  0  0  0  0  0  0
    7.2889   -2.2120   21.9555 H   0  0  0  0  0  0  0  0  0  0  0  0
    7.0870   -0.0091   22.1499 H   0  0  0  0  0  0  0  0  0  0  0  0
    5.4823    0.5732   22.4792 H   0  0  0  0  0  0  0  0  0  0  0  0
    3.2842    1.5927   22.6873 H   0  0  0  0  0  0  0  0  0  0  0  0
    2.1110    2.4473   20.7066 H   0  0  0  0  0  0  0  0  0  0  0  0
    3.0845    2.2041   18.4878 H   0  0  0  0  0  0  0  0  0  0  0  0
    4.9467    1.3286   17.0312 H   0  0  0  0  0  0  0  0  0  0  0  0
    8.3989   -0.2071   18.7107 H   0  0  0  0  0  0  0  0  0  0  0  0
  1  2  2  0
  3  2  1  6
  2 16  1  0
  3  4  1  0
  3 13  1  0
  3 14  1  0
  4  5  2  0
  4 10  1  0
  5  6  1  0
  5 27  1  0
  6  7  1  0
  6  8  2  0
  8  9  1  0
  8 28  1  0
  9 10  2  0
  9 29  1  0
 10 11  1  0
 11 12  1  0
 12 13  1  0
 12 30  1  1
 12 31  1  0
 13 32  1  1
 13 33  1  0
 14 15  1  0
 14 34  1  6
 14 35  1  0
 15 36  1  6
 15 37  1  0
 15 38  1  0
 16 17  1  0
 16 39  1  0
 17 18  2  0
 17 26  1  0
 18 19  1  0
 18 23  1  0
 19 20  2  0
 19 40  1  0
 20 21  1  0
 20 41  1  0
 21 22  2  0
 21 42  1  0
 22 23  1  0
 22 43  1  0
 23 24  2  0
 24 25  1  0
 24 44  1  0
 25 26  2  0
 26 45  1  0
M  CHG  1  15   1
M  END
$$$$
