LIG(A-306)
     RDKit          3D

 54 57  0  0  1  0  0  0  0  0999 V2000
   14.0864   -1.5240   21.3596 Cl  0  0  0  0  0  0  0  0  0  0  0  0
   12.9271   -0.7359   22.3902 C   0  0  0  0  0  0  0  0  0  0  0  0
   11.5997   -1.1049   22.3089 C   0  0  0  0  0  0  0  0  0  0  0  0
   13.3482    0.2570   23.2457 C   0  0  0  0  0  0  0  0  0  0  0  0
   12.4160    0.8901   24.0490 C   0  0  0  0  0  0  0  0  0  0  0  0
   11.0625    0.5612   23.9775 C   0  0  0  0  0  0  0  0  0  0  0  0
   10.0692    1.2677   24.8744 C   0  0  1  0  0  0  0  0  0  0  0  0
    8.6840    1.1044   24.4129 N   0  0  2  0  0  0  0  0  0  0  0  0
    7.6807    1.7827   25.2630 C   0  0  1  0  0  0  0  0  0  0  0  0
    7.9269    2.0300   26.7453 C   0  0  1  0  0  0  0  0  0  0  0  0
    6.9957    2.9773   24.5846 C   0  0  0  0  0  0  0  0  0  0  0  0
    6.1232    3.6162   25.1707 O   0  0  0  0  0  0  0  0  0  0  0  0
    7.3998    3.2647   23.3504 N   0  0  0  0  0  0  0  0  0  0  0  0
    6.8289    4.3591   22.5874 C   0  0  1  0  0  0  0  0  0  0  0  0
   10.6503   -0.4400   23.0820 C   0  0  0  0  0  0  0  0  0  0  0  0
    9.1767   -0.7507   22.9115 C   0  0  1  0  0  0  0  0  0  0  0  0
    8.4033   -0.3127   24.1548 C   0  0  1  0  0  0  0  0  0  0  0  0
    8.6569   -0.0021   21.6816 C   0  0  0  0  0  0  0  0  0  0  0  0
    9.1845    1.0335   21.2727 O   0  0  0  0  0  0  0  0  0  0  0  0
    7.5193   -0.5114   21.1499 N   0  0  0  0  0  0  0  0  0  0  0  0
    6.7641    0.0078   20.0776 C   0  0  0  0  0  0  0  0  0  0  0  0
    5.5830    0.7643   20.3684 C   0  0  0  0  0  0  0  0  0  0  0  0
    5.0821    0.9733   21.6807 C   0  0  0  0  0  0  0  0  0  0  0  0
    3.9799    1.7536   21.8963 C   0  0  0  0  0  0  0  0  0  0  0  0
    3.3206    2.3570   20.8344 C   0  0  0  0  0  0  0  0  0  0  0  0
    3.7604    2.1821   19.5519 C   0  0  0  0  0  0  0  0  0  0  0  0
    4.8996    1.3806   19.2824 C   0  0  0  0  0  0  0  0  0  0  0  0
    5.4165    1.1857   17.9770 C   0  0  0  0  0  0  0  0  0  0  0  0
    6.5055    0.4771   17.7060 N   0  0  0  0  0  0  0  0  0  0  0  0
    7.1497   -0.0886   18.7377 C   0  0  0  0  0  0  0  0  0  0  0  0
   11.2983   -1.9051   21.6492 H   0  0  0  0  0  0  0  0  0  0  0  0
   14.3903    0.5376   23.2894 H   0  0  0  0  0  0  0  0  0  0  0  0
   12.7418    1.6513   24.7425 H   0  0  0  0  0  0  0  0  0  0  0  0
   10.1542    0.8546   25.8903 H   0  0  0  0  0  0  0  0  0  0  0  0
   10.3111    2.3406   24.8934 H   0  0  0  0  0  0  0  0  0  0  0  0
    8.6372    1.5588   23.5233 H   0  0  0  0  0  0  0  0  0  0  0  0
    6.8652    1.0450   25.2911 H   0  0  0  0  0  0  0  0  0  0  0  0
    7.0576    2.5441   27.1811 H   0  0  0  0  0  0  0  0  0  0  0  0
    8.0786    1.0683   27.2572 H   0  0  0  0  0  0  0  0  0  0  0  0
    8.8228    2.6562   26.8685 H   0  0  0  0  0  0  0  0  0  0  0  0
    8.1199    2.7089   22.9350 H   0  0  0  0  0  0  0  0  0  0  0  0
    7.3121    4.4100   21.6006 H   0  0  0  0  0  0  0  0  0  0  0  0
    5.7492    4.1922   22.4588 H   0  0  0  0  0  0  0  0  0  0  0  0
    6.9922    5.3049   23.1248 H   0  0  0  0  0  0  0  0  0  0  0  0
    9.0440   -1.8324   22.7620 H   0  0  0  0  0  0  0  0  0  0  0  0
    8.7204   -0.9154   25.0185 H   0  0  0  0  0  0  0  0  0  0  0  0
    7.3251   -0.4512   23.9870 H   0  0  0  0  0  0  0  0  0  0  0  0
    7.1752   -1.3530   21.5660 H   0  0  0  0  0  0  0  0  0  0  0  0
    5.5786    0.5096   22.5203 H   0  0  0  0  0  0  0  0  0  0  0  0
    3.6188    1.9017   22.9032 H   0  0  0  0  0  0  0  0  0  0  0  0
    2.4520    2.9704   21.0231 H   0  0  0  0  0  0  0  0  0  0  0  0
    3.2361    2.6583   18.7366 H   0  0  0  0  0  0  0  0  0  0  0  0
    4.8913    1.6425   17.1512 H   0  0  0  0  0  0  0  0  0  0  0  0
    8.0363   -0.6638   18.5155 H   0  0  0  0  0  0  0  0  0  0  0  0
  1  2  1  0
  2  3  2  0
  2  4  1  0
  3 15  1  0
  3 31  1  0
  4  5  2  0
  4 32  1  0
  5  6  1  0
  5 33  1  0
  6  7  1  0
  6 15  2  0
  7  8  1  0
  7 34  1  1
  7 35  1  0
  8  9  1  0
  8 17  1  0
  8 36  1  6
  9 10  1  0
  9 11  1  0
  9 37  1  1
 10 38  1  1
 10 39  1  0
 10 40  1  0
 11 12  2  0
 11 13  1  0
 13 14  1  0
 13 41  1  0
 14 42  1  6
 14 43  1  0
 14 44  1  0
 15 16  1  0
 16 17  1  0
 16 18  1  0
 16 45  1  6
 17 46  1  1
 17 47  1  0
 18 19  2  0
 18 20  1  0
 20 21  1  0
 20 48  1  0
 21 22  2  0
 21 30  1  0
 22 23  1  0
 22 27  1  0
 23 24  2  0
 23 49  1  0
 24 25  1  0
 24 50  1  0
 25 26  2  0
 25 51  1  0
 26 27  1  0
 26 52  1  0
 27 28  2  0
 28 29  1  0
 28 53  1  0
 29 30  2  0
 30 54  1  0
M  CHG  1   8   1
M  END
$$$$
