LIG(A-306)
     RDKit          3D

 49 52  0  0  1  0  0  0  0  0999 V2000
   10.6358    2.9536   24.5668 O   0  0  0  0  0  0  0  0  0  0  0  0
   10.3002    1.8217   24.2730 C   0  0  0  0  0  0  0  0  0  0  0  0
    9.0081    1.3870   24.4282 N   0  0  0  0  0  0  0  0  0  0  0  0
    8.0646    2.1902   25.1834 C   0  0  1  0  0  0  0  0  0  0  0  0
    7.4585    3.3892   24.4698 C   0  0  0  0  0  0  0  0  0  0  0  0
    6.7452    4.1772   25.0864 O   0  0  0  0  0  0  0  0  0  0  0  0
    7.7031    3.5219   23.1698 N   0  0  0  0  0  0  0  0  0  0  0  0
    7.0031    4.4880   22.3440 C   0  0  1  0  0  0  0  0  0  0  0  0
   11.2248    0.9006   23.5870 C   0  0  0  0  0  0  0  0  0  0  0  0
   12.5753    1.2416   23.4756 C   0  0  0  0  0  0  0  0  0  0  0  0
   13.4480    0.4254   22.7805 C   0  0  0  0  0  0  0  0  0  0  0  0
   12.9703   -0.7354   22.2108 C   0  0  0  0  0  0  0  0  0  0  0  0
   14.0725   -1.7862   21.3700 Cl  0  0  0  0  0  0  0  0  0  0  0  0
   11.6354   -1.0906   22.2936 C   0  0  0  0  0  0  0  0  0  0  0  0
   10.7412   -0.2569   22.9641 C   0  0  0  0  0  0  0  0  0  0  0  0
    9.2573   -0.5516   22.9376 C   0  0  1  0  0  0  0  0  0  0  0  0
    8.5999   -0.0029   24.2042 C   0  0  2  0  0  0  0  0  0  0  0  0
    8.6737    0.1730   21.7218 C   0  0  0  0  0  0  0  0  0  0  0  0
    9.0932    1.2666   21.3457 O   0  0  0  0  0  0  0  0  0  0  0  0
    7.6306   -0.4539   21.1350 N   0  0  0  0  0  0  0  0  0  0  0  0
    6.8513    0.0087   20.0536 C   0  0  0  0  0  0  0  0  0  0  0  0
    5.7231    0.8449   20.3299 C   0  0  0  0  0  0  0  0  0  0  0  0
    5.2506    1.1293   21.6395 C   0  0  0  0  0  0  0  0  0  0  0  0
    4.1665    1.9429   21.8346 C   0  0  0  0  0  0  0  0  0  0  0  0
    3.5130    2.5214   20.7545 C   0  0  0  0  0  0  0  0  0  0  0  0
    3.9278    2.2766   19.4756 C   0  0  0  0  0  0  0  0  0  0  0  0
    5.0364    1.4275   19.2265 C   0  0  0  0  0  0  0  0  0  0  0  0
    5.4980    1.1147   17.9226 C   0  0  0  0  0  0  0  0  0  0  0  0
    6.5304    0.3216   17.6677 N   0  0  0  0  0  0  0  0  0  0  0  0
    7.1783   -0.2089   18.7144 C   0  0  0  0  0  0  0  0  0  0  0  0
    7.2378    1.5323   25.4895 H   0  0  0  0  0  0  0  0  0  0  0  0
    8.5861    2.5636   26.0771 H   0  0  0  0  0  0  0  0  0  0  0  0
    8.3936    2.9354   22.7462 H   0  0  0  0  0  0  0  0  0  0  0  0
    7.3677    4.4186   21.3085 H   0  0  0  0  0  0  0  0  0  0  0  0
    5.9239    4.2766   22.3675 H   0  0  0  0  0  0  0  0  0  0  0  0
    7.1866    5.5015   22.7301 H   0  0  0  0  0  0  0  0  0  0  0  0
   12.9396    2.1484   23.9355 H   0  0  0  0  0  0  0  0  0  0  0  0
   14.4898    0.6936   22.6850 H   0  0  0  0  0  0  0  0  0  0  0  0
   11.2884   -2.0080   21.8416 H   0  0  0  0  0  0  0  0  0  0  0  0
    9.0814   -1.6343   22.8556 H   0  0  0  0  0  0  0  0  0  0  0  0
    7.5063   -0.0466   24.0935 H   0  0  0  0  0  0  0  0  0  0  0  0
    8.9058   -0.6144   25.0659 H   0  0  0  0  0  0  0  0  0  0  0  0
    7.3826   -1.3473   21.5098 H   0  0  0  0  0  0  0  0  0  0  0  0
    5.7533    0.6980   22.4925 H   0  0  0  0  0  0  0  0  0  0  0  0
    3.8166    2.1365   22.8379 H   0  0  0  0  0  0  0  0  0  0  0  0
    2.6680    3.1715   20.9270 H   0  0  0  0  0  0  0  0  0  0  0  0
    3.4070    2.7338   18.6472 H   0  0  0  0  0  0  0  0  0  0  0  0
    4.9756    1.5500   17.0835 H   0  0  0  0  0  0  0  0  0  0  0  0
    8.0182   -0.8548   18.5053 H   0  0  0  0  0  0  0  0  0  0  0  0
  1  2  2  0
  2  3  1  0
  2  9  1  0
  3  4  1  0
  3 17  1  0
  4  5  1  0
  4 31  1  1
  4 32  1  0
  5  6  2  0
  5  7  1  0
  7  8  1  0
  7 33  1  0
  8 34  1  6
  8 35  1  0
  8 36  1  0
  9 10  2  0
  9 15  1  0
 10 11  1  0
 10 37  1  0
 11 12  2  0
 11 38  1  0
 12 13  1  0
 12 14  1  0
 14 15  2  0
 14 39  1  0
 15 16  1  0
 16 17  1  0
 16 18  1  0
 16 40  1  6
 17 41  1  6
 17 42  1  0
 18 19  2  0
 18 20  1  0
 20 21  1  0
 20 43  1  0
 21 22  2  0
 21 30  1  0
 22 23  1  0
 22 27  1  0
 23 24  2  0
 23 44  1  0
 24 25  1  0
 24 45  1  0
 25 26  2  0
 25 46  1  0
 26 27  1  0
 26 47  1  0
 27 28  2  0
 28 29  1  0
 28 48  1  0
 29 30  2  0
 30 49  1  0
M  END
$$$$
