LIG(A-305)
     RDKit          3D

 47 49  0  0  0  0  0  0  0  0999 V2000
    6.6493    0.5865   17.5981 N   0  0  0  0  0  0  0  0  0  0  0  0
    9.2763   -0.6985   22.4901 N   0  0  0  0  0  0  0  0  0  0  0  0
    7.4933   -0.5734   20.9801 N   0  0  0  0  0  0  0  0  0  0  0  0
    7.2242   -3.8403   24.9302 C   0  0  1  0  0  0  0  0  0  0  0  0
   13.3273    0.2034   23.0790 C   0  0  0  0  0  0  0  0  0  0  0  0
    9.2333    0.8875   20.8710 O   0  0  0  0  0  0  0  0  0  0  0  0
    9.5072   -4.5674   25.3122 C   0  0  1  0  0  0  0  0  0  0  0  0
   12.3564    0.8314   23.8470 C   0  0  0  0  0  0  0  0  0  0  0  0
    5.5263    1.2696   17.8571 C   0  0  0  0  0  0  0  0  0  0  0  0
    8.4723   -1.4944   23.4251 C   0  0  1  0  0  0  0  0  0  0  0  0
   11.6133   -1.1286   22.0220 C   0  0  0  0  0  0  0  0  0  0  0  0
   10.6473   -0.4905   22.7941 C   0  0  0  0  0  0  0  0  0  0  0  0
    6.8442   -4.4413   26.2652 C   0  0  1  0  0  0  0  0  0  0  0  0
    6.7583    0.0136   19.9321 C   0  0  0  0  0  0  0  0  0  0  0  0
    7.2412   -0.0315   18.6231 C   0  0  0  0  0  0  0  0  0  0  0  0
    9.0682   -5.1394   26.6362 C   0  0  1  0  0  0  0  0  0  0  0  0
    8.6793   -0.0685   21.3921 C   0  0  0  0  0  0  0  0  0  0  0  0
    5.5973    0.7367   20.1721 C   0  0  0  0  0  0  0  0  0  0  0  0
   12.9363   -0.7766   22.1850 C   0  0  0  0  0  0  0  0  0  0  0  0
    8.6452   -3.4294   24.9422 N   0  0  1  0  0  0  0  0  0  0  0  0
    7.6941   -5.5473   26.6042 O   0  0  0  0  0  0  0  0  0  0  0  0
    9.0512   -2.8654   23.6481 C   0  0  2  0  0  0  0  0  0  0  0  0
   11.0204    0.4825   23.7210 C   0  0  0  0  0  0  0  0  0  0  0  0
    4.9703    1.3797   19.1221 C   0  0  0  0  0  0  0  0  0  0  0  0
   14.1452   -1.6317   21.2730 Cl  0  0  0  0  0  0  0  0  0  0  0  0
    7.1282   -1.3869   21.4329 H   0  0  0  0  0  0  0  0  0  0  0  0
    7.0683   -4.5871   24.1377 H   0  0  0  0  0  0  0  0  0  0  0  0
    6.5930   -2.9609   24.7345 H   0  0  0  0  0  0  0  0  0  0  0  0
   14.3680    0.4748   23.1778 H   0  0  0  0  0  0  0  0  0  0  0  0
   10.5492   -4.2242   25.3914 H   0  0  0  0  0  0  0  0  0  0  0  0
    9.4353   -5.3453   24.5378 H   0  0  0  0  0  0  0  0  0  0  0  0
   12.6444    1.5994   24.5496 H   0  0  0  0  0  0  0  0  0  0  0  0
    5.0269    1.7614   17.0354 H   0  0  0  0  0  0  0  0  0  0  0  0
    8.4264   -0.9680   24.3899 H   0  0  0  0  0  0  0  0  0  0  0  0
    7.4564   -1.6010   23.0169 H   0  0  0  0  0  0  0  0  0  0  0  0
   11.3312   -1.8871   21.3069 H   0  0  0  0  0  0  0  0  0  0  0  0
    6.9343   -3.6692   27.0436 H   0  0  0  0  0  0  0  0  0  0  0  0
    5.8029   -4.7924   26.2159 H   0  0  0  0  0  0  0  0  0  0  0  0
    8.1413   -0.5960   18.4292 H   0  0  0  0  0  0  0  0  0  0  0  0
    9.6944   -6.0120   26.8735 H   0  0  0  0  0  0  0  0  0  0  0  0
    9.1954   -4.3738   27.4158 H   0  0  0  0  0  0  0  0  0  0  0  0
    5.1883    0.7958   21.1699 H   0  0  0  0  0  0  0  0  0  0  0  0
    8.7548   -2.7197   25.6380 H   0  0  0  0  0  0  0  0  0  0  0  0
   10.1487   -2.7967   23.6191 H   0  0  0  0  0  0  0  0  0  0  0  0
    8.7043   -3.5325   22.8453 H   0  0  0  0  0  0  0  0  0  0  0  0
   10.2733    0.9611   24.3368 H   0  0  0  0  0  0  0  0  0  0  0  0
    4.0697    1.9536   19.2829 H   0  0  0  0  0  0  0  0  0  0  0  0
  1  9  2  0
  1 15  1  0
  2 10  1  0
  2 12  1  0
  2 17  1  0
  3 14  1  0
  3 17  1  0
  3 26  1  0
  4 13  1  0
  4 20  1  0
  4 27  1  6
  4 28  1  0
  5  8  2  0
  5 19  1  0
  5 29  1  0
  6 17  2  0
  7 16  1  0
  7 20  1  0
  7 30  1  1
  7 31  1  0
  8 23  1  0
  8 32  1  0
  9 24  1  0
  9 33  1  0
 10 22  1  0
 10 34  1  1
 10 35  1  0
 11 12  1  0
 11 19  2  0
 11 36  1  0
 12 23  2  0
 13 21  1  0
 13 37  1  1
 13 38  1  0
 14 15  2  0
 14 18  1  0
 15 39  1  0
 16 21  1  0
 16 40  1  1
 16 41  1  0
 18 24  2  0
 18 42  1  0
 19 25  1  0
 20 22  1  0
 20 43  1  1
 22 44  1  1
 22 45  1  0
 23 46  1  0
 24 47  1  0
M  CHG  1  20   1
M  END
$$$$
