LIG(A-306)
     RDKit          3D

 33 35  0  0  0  0  0  0  0  0999 V2000
   -9.7059    0.2701  -20.9366 O   0  0  0  0  0  0  0  0  0  0  0  0
   -9.1622   -0.7823  -21.2694 C   0  0  0  0  0  0  0  0  0  0  0  0
   -9.8325   -1.7730  -22.2014 C   0  0  1  0  0  0  0  0  0  0  0  0
  -11.2747   -1.4441  -22.5010 C   0  0  0  0  0  0  0  0  0  0  0  0
  -12.3200   -2.0286  -21.7989 C   0  0  0  0  0  0  0  0  0  0  0  0
  -13.6174   -1.6377  -22.0876 C   0  0  0  0  0  0  0  0  0  0  0  0
  -13.8521   -0.6988  -23.0800 C   0  0  0  0  0  0  0  0  0  0  0  0
  -11.4788   -0.5407  -23.4781 N   0  0  0  0  0  0  0  0  0  0  0  0
  -12.7392   -0.2181  -23.7469 C   0  0  0  0  0  0  0  0  0  0  0  0
  -12.9660    0.8135  -25.1284 Cl  0  0  0  0  0  0  0  0  0  0  0  0
   -7.9432   -1.1622  -20.8318 N   0  0  0  0  0  0  0  0  0  0  0  0
   -7.1646   -0.5424  -19.8385 C   0  0  0  0  0  0  0  0  0  0  0  0
   -6.0747    0.2922  -20.2323 C   0  0  0  0  0  0  0  0  0  0  0  0
   -5.6508    0.4602  -21.5758 C   0  0  0  0  0  0  0  0  0  0  0  0
   -4.6243    1.3070  -21.8869 C   0  0  0  0  0  0  0  0  0  0  0  0
   -3.9621    2.0134  -20.8939 C   0  0  0  0  0  0  0  0  0  0  0  0
   -4.3235    1.8762  -19.5839 C   0  0  0  0  0  0  0  0  0  0  0  0
   -5.3867    1.0131  -19.2169 C   0  0  0  0  0  0  0  0  0  0  0  0
   -5.8195    0.8406  -17.8812 C   0  0  0  0  0  0  0  0  0  0  0  0
   -6.8310    0.0625  -17.5177 N   0  0  0  0  0  0  0  0  0  0  0  0
   -7.4751   -0.6086  -18.4826 C   0  0  0  0  0  0  0  0  0  0  0  0
   -9.2757   -1.7890  -23.1499 H   0  0  0  0  0  0  0  0  0  0  0  0
   -9.7929   -2.7691  -21.7363 H   0  0  0  0  0  0  0  0  0  0  0  0
  -12.1255   -2.7739  -21.0419 H   0  0  0  0  0  0  0  0  0  0  0  0
  -14.4450   -2.0641  -21.5402 H   0  0  0  0  0  0  0  0  0  0  0  0
  -14.8495   -0.3609  -23.3196 H   0  0  0  0  0  0  0  0  0  0  0  0
   -7.5501   -1.9750  -21.2618 H   0  0  0  0  0  0  0  0  0  0  0  0
   -6.1461   -0.0885  -22.3632 H   0  0  0  0  0  0  0  0  0  0  0  0
   -4.3253    1.4275  -22.9177 H   0  0  0  0  0  0  0  0  0  0  0  0
   -3.1532    2.6781  -21.1589 H   0  0  0  0  0  0  0  0  0  0  0  0
   -3.7953    2.4296  -18.8216 H   0  0  0  0  0  0  0  0  0  0  0  0
   -5.2921    1.3774  -17.1066 H   0  0  0  0  0  0  0  0  0  0  0  0
   -8.2945   -1.2471  -18.1871 H   0  0  0  0  0  0  0  0  0  0  0  0
  1  2  2  0
  2  3  1  0
  2 11  1  0
  3  4  1  0
  3 22  1  6
  3 23  1  0
  4  5  2  0
  4  8  1  0
  5  6  1  0
  5 24  1  0
  6  7  2  0
  6 25  1  0
  7  9  1  0
  7 26  1  0
  8  9  2  0
  9 10  1  0
 11 12  1  0
 11 27  1  0
 12 13  2  0
 12 21  1  0
 13 14  1  0
 13 18  1  0
 14 15  2  0
 14 28  1  0
 15 16  1  0
 15 29  1  0
 16 17  2  0
 16 30  1  0
 17 18  1  0
 17 31  1  0
 18 19  2  0
 19 20  1  0
 19 32  1  0
 20 21  2  0
 21 33  1  0
M  END
$$$$
