LIG(A-306)
     RDKit          3D

 59 63  0  0  1  0  0  0  0  0999 V2000
    9.5209    1.5680   21.4312 O   0  0  0  0  0  0  0  0  0  0  0  0
    9.1265    0.5006   21.8668 C   0  0  0  0  0  0  0  0  0  0  0  0
    8.0782   -0.2161   21.3767 N   0  0  0  0  0  0  0  0  0  0  0  0
    7.2232    0.1953   20.2982 C   0  0  0  0  0  0  0  0  0  0  0  0
    6.0945    1.0032   20.4945 C   0  0  0  0  0  0  0  0  0  0  0  0
    5.7723    1.5623   21.8628 C   0  0  1  0  0  0  0  0  0  0  0  0
    4.3538    2.1022   21.9733 C   0  0  1  0  0  0  0  0  0  0  0  0
    4.0071    2.9752   20.7770 C   0  0  1  0  0  0  0  0  0  0  0  0
    4.0732    2.1787   19.4941 C   0  0  1  0  0  0  0  0  0  0  0  0
    5.3239    1.3419   19.3687 C   0  0  0  0  0  0  0  0  0  0  0  0
    5.7433    0.8800   18.1361 C   0  0  0  0  0  0  0  0  0  0  0  0
    6.8301    0.1299   17.9340 N   0  0  0  0  0  0  0  0  0  0  0  0
    7.5475   -0.2121   19.0092 C   0  0  0  0  0  0  0  0  0  0  0  0
    7.9326   -1.5331   22.0243 C   0  0  1  0  0  0  0  0  0  0  0  0
    9.2519   -1.7160   22.7713 C   0  0  1  0  0  0  0  0  0  0  0  0
    9.7264   -0.2700   23.0500 C   0  0  1  0  0  0  0  0  0  0  0  0
   11.2501   -0.1172   23.0960 C   0  0  0  0  0  0  0  0  0  0  0  0
   12.0593   -0.8650   22.2403 C   0  0  0  0  0  0  0  0  0  0  0  0
   13.4010   -0.5525   22.1326 C   0  0  0  0  0  0  0  0  0  0  0  0
   14.3699   -1.3930   20.9486 Cl  0  0  0  0  0  0  0  0  0  0  0  0
   13.9743    0.4498   22.8874 C   0  0  0  0  0  0  0  0  0  0  0  0
   13.1833    1.1559   23.7767 C   0  0  0  0  0  0  0  0  0  0  0  0
   11.8197    0.8846   23.8978 C   0  0  0  0  0  0  0  0  0  0  0  0
   10.9893    1.6549   24.9043 C   0  0  1  0  0  0  0  0  0  0  0  0
    9.0643    0.3267   24.3205 C   0  0  1  0  0  0  0  0  0  0  0  0
    9.5589    1.6847   24.5495 N   0  0  1  0  0  0  0  0  0  0  0  0
    8.7626    2.4835   25.4823 C   0  0  1  0  0  0  0  0  0  0  0  0
    7.7717    3.4340   24.8263 C   0  0  0  0  0  0  0  0  0  0  0  0
    6.6280    3.5574   25.2625 O   0  0  0  0  0  0  0  0  0  0  0  0
    8.2034    4.1123   23.7711 N   0  0  0  0  0  0  0  0  0  0  0  0
    7.3365    4.9890   23.0057 C   0  0  1  0  0  0  0  0  0  0  0  0
    5.9001    0.7615   22.6061 H   0  0  0  0  0  0  0  0  0  0  0  0
    6.4752    2.3800   22.0803 H   0  0  0  0  0  0  0  0  0  0  0  0
    3.6502    1.2579   22.0183 H   0  0  0  0  0  0  0  0  0  0  0  0
    4.2675    2.7007   22.8922 H   0  0  0  0  0  0  0  0  0  0  0  0
    2.9889    3.3720   20.9032 H   0  0  0  0  0  0  0  0  0  0  0  0
    4.7215    3.8097   20.7205 H   0  0  0  0  0  0  0  0  0  0  0  0
    3.2010    1.5095   19.4545 H   0  0  0  0  0  0  0  0  0  0  0  0
    4.0366    2.8793   18.6470 H   0  0  0  0  0  0  0  0  0  0  0  0
    5.1496    1.1445   17.2736 H   0  0  0  0  0  0  0  0  0  0  0  0
    8.4194   -0.8339   18.8698 H   0  0  0  0  0  0  0  0  0  0  0  0
    7.0827   -1.5352   22.7225 H   0  0  0  0  0  0  0  0  0  0  0  0
    7.7932   -2.3258   21.2744 H   0  0  0  0  0  0  0  0  0  0  0  0
    9.0960   -2.2647   23.7119 H   0  0  0  0  0  0  0  0  0  0  0  0
    9.9823   -2.2543   22.1495 H   0  0  0  0  0  0  0  0  0  0  0  0
   11.6413   -1.6798   21.6678 H   0  0  0  0  0  0  0  0  0  0  0  0
   15.0246    0.6799   22.7858 H   0  0  0  0  0  0  0  0  0  0  0  0
   13.6280    1.9286   24.3862 H   0  0  0  0  0  0  0  0  0  0  0  0
   11.0986    1.1791   25.8900 H   0  0  0  0  0  0  0  0  0  0  0  0
   11.3626    2.6885   24.9526 H   0  0  0  0  0  0  0  0  0  0  0  0
    7.9731    0.3542   24.1844 H   0  0  0  0  0  0  0  0  0  0  0  0
    9.3098   -0.3020   25.1891 H   0  0  0  0  0  0  0  0  0  0  0  0
    9.5038    2.1523   23.6673 H   0  0  0  0  0  0  0  0  0  0  0  0
    8.1989    1.7940   26.1279 H   0  0  0  0  0  0  0  0  0  0  0  0
    9.4527    3.0798   26.0971 H   0  0  0  0  0  0  0  0  0  0  0  0
    9.1592    4.0161   23.4935 H   0  0  0  0  0  0  0  0  0  0  0  0
    7.9076    5.4422   22.1819 H   0  0  0  0  0  0  0  0  0  0  0  0
    6.4983    4.4076   22.5941 H   0  0  0  0  0  0  0  0  0  0  0  0
    6.9462    5.7818   23.6608 H   0  0  0  0  0  0  0  0  0  0  0  0
  1  2  2  0
  2  3  1  0
 16  2  1  6
  3  4  1  0
  3 14  1  0
  4  5  2  0
  4 13  1  0
  5  6  1  0
  5 10  1  0
  6  7  1  0
  6 32  1  1
  6 33  1  0
  7  8  1  0
  7 34  1  1
  7 35  1  0
  8  9  1  0
  8 36  1  1
  8 37  1  0
  9 10  1  0
  9 38  1  6
  9 39  1  0
 10 11  2  0
 11 12  1  0
 11 40  1  0
 12 13  2  0
 13 41  1  0
 14 15  1  0
 14 42  1  1
 14 43  1  0
 15 16  1  0
 15 44  1  1
 15 45  1  0
 16 17  1  0
 16 25  1  0
 17 18  2  0
 17 23  1  0
 18 19  1  0
 18 46  1  0
 19 20  1  0
 19 21  2  0
 21 22  1  0
 21 47  1  0
 22 23  2  0
 22 48  1  0
 23 24  1  0
 24 26  1  0
 24 49  1  1
 24 50  1  0
 25 26  1  0
 25 51  1  6
 25 52  1  0
 26 27  1  0
 26 53  1  6
 27 28  1  0
 27 54  1  1
 27 55  1  0
 28 29  2  0
 28 30  1  0
 30 31  1  0
 30 56  1  0
 31 57  1  6
 31 58  1  0
 31 59  1  0
M  CHG  1  26   1
M  END
$$$$
