LIG(A-306)
     RDKit          3D

 47 50  0  0  1  0  0  0  0  0999 V2000
   14.8862   -1.2716   23.2915 F   0  0  0  0  0  0  0  0  0  0  0  0
   13.8089   -1.0689   22.5332 C   0  0  2  0  0  0  0  0  0  0  0  0
   13.0073   -2.1146   22.7602 F   0  0  0  0  0  0  0  0  0  0  0  0
   14.2304   -1.1692   21.2688 F   0  0  0  0  0  0  0  0  0  0  0  0
   13.1428    0.2430   22.8126 C   0  0  0  0  0  0  0  0  0  0  0  0
   13.8191    1.4396   22.6158 C   0  0  0  0  0  0  0  0  0  0  0  0
   13.1752    2.6481   22.8127 C   0  0  0  0  0  0  0  0  0  0  0  0
   11.8521    2.6701   23.2233 C   0  0  0  0  0  0  0  0  0  0  0  0
   11.8146    0.2770   23.2301 C   0  0  0  0  0  0  0  0  0  0  0  0
   11.1598    1.4855   23.4450 C   0  0  0  0  0  0  0  0  0  0  0  0
    9.7396    1.4960   23.9956 C   0  0  1  0  0  0  0  0  0  0  0  0
    9.0535    2.8540   24.1177 C   0  0  1  0  0  0  0  0  0  0  0  0
    8.8462    0.4708   23.3805 N   0  0  0  0  0  0  0  0  0  0  0  0
    8.3284   -0.5899   24.2916 C   0  0  2  0  0  0  0  0  0  0  0  0
    9.0347   -0.8368   25.5840 C   0  0  1  0  0  0  0  0  0  0  0  0
    9.1423   -1.8302   24.4660 C   0  0  1  0  0  0  0  0  0  0  0  0
    8.4643    0.5434   22.0670 C   0  0  0  0  0  0  0  0  0  0  0  0
    8.7172    1.5206   21.3792 O   0  0  0  0  0  0  0  0  0  0  0  0
    7.6961   -0.6304   21.4486 C   0  0  1  0  0  0  0  0  0  0  0  0
    6.9214   -0.2139   20.2974 N   0  0  0  0  0  0  0  0  0  0  0  0
    5.8116    0.5742   20.2392 C   0  0  0  0  0  0  0  0  0  0  0  0
    5.5616    0.7129   18.8765 C   0  0  0  0  0  0  0  0  0  0  0  0
    6.5084   -0.0044   18.1812 N   0  0  0  0  0  0  0  0  0  0  0  0
    7.3145   -0.5582   19.0442 N   0  0  0  0  0  0  0  0  0  0  0  0
    5.0289    1.2021   21.1959 C   0  0  0  0  0  0  0  0  0  0  0  0
    3.9832    2.0015   20.7537 C   0  0  0  0  0  0  0  0  0  0  0  0
    3.7291    2.1582   19.3929 C   0  0  0  0  0  0  0  0  0  0  0  0
    4.5098    1.5123   18.4423 C   0  0  0  0  0  0  0  0  0  0  0  0
   14.8540    1.4268   22.3072 H   0  0  0  0  0  0  0  0  0  0  0  0
   13.7042    3.5749   22.6462 H   0  0  0  0  0  0  0  0  0  0  0  0
   11.3540    3.6166   23.3725 H   0  0  0  0  0  0  0  0  0  0  0  0
   11.2843   -0.6502   23.3898 H   0  0  0  0  0  0  0  0  0  0  0  0
    9.8564    1.1635   25.0376 H   0  0  0  0  0  0  0  0  0  0  0  0
    8.0409    2.7185   24.5256 H   0  0  0  0  0  0  0  0  0  0  0  0
    9.6362    3.4999   24.7909 H   0  0  0  0  0  0  0  0  0  0  0  0
    8.9889    3.3226   23.1247 H   0  0  0  0  0  0  0  0  0  0  0  0
    7.2367   -0.7238   24.3055 H   0  0  0  0  0  0  0  0  0  0  0  0
    9.9051   -0.2240   25.8614 H   0  0  0  0  0  0  0  0  0  0  0  0
    8.4584   -1.0853   26.4874 H   0  0  0  0  0  0  0  0  0  0  0  0
    8.6448   -2.8078   24.5485 H   0  0  0  0  0  0  0  0  0  0  0  0
   10.0916   -1.9464   23.9224 H   0  0  0  0  0  0  0  0  0  0  0  0
    8.4150   -1.4017   21.1350 H   0  0  0  0  0  0  0  0  0  0  0  0
    7.0153   -1.0493   22.2044 H   0  0  0  0  0  0  0  0  0  0  0  0
    5.2260    1.0738   22.2500 H   0  0  0  0  0  0  0  0  0  0  0  0
    3.3585    2.5086   21.4743 H   0  0  0  0  0  0  0  0  0  0  0  0
    2.9142    2.7903   19.0726 H   0  0  0  0  0  0  0  0  0  0  0  0
    4.3042    1.6286   17.3884 H   0  0  0  0  0  0  0  0  0  0  0  0
  2  1  1  1
  2  3  1  0
  2  4  1  0
  2  5  1  0
  5  6  2  0
  5  9  1  0
  6  7  1  0
  6 29  1  0
  7  8  2  0
  7 30  1  0
  8 10  1  0
  8 31  1  0
  9 10  2  0
  9 32  1  0
 10 11  1  0
 11 12  1  0
 11 13  1  0
 11 33  1  1
 12 34  1  1
 12 35  1  0
 12 36  1  0
 13 14  1  0
 13 17  1  0
 14 15  1  0
 14 16  1  0
 14 37  1  1
 15 16  1  0
 15 38  1  1
 15 39  1  0
 16 40  1  1
 16 41  1  0
 17 18  2  0
 17 19  1  0
 19 20  1  0
 19 42  1  6
 19 43  1  0
 20 21  1  0
 20 24  1  0
 21 22  2  0
 21 25  1  0
 22 23  1  0
 22 28  1  0
 23 24  2  0
 25 26  2  0
 25 44  1  0
 26 27  1  0
 26 45  1  0
 27 28  2  0
 27 46  1  0
 28 47  1  0
M  END
$$$$
