LIG(A-307)
     RDKit          3D

 37 39  0  0  1  0  0  0  0  0999 V2000
   14.2719   -1.3742   20.9846 Cl  0  0  0  0  0  0  0  0  0  0  0  0
   13.5567   -0.1823   22.0355 C   0  0  0  0  0  0  0  0  0  0  0  0
   14.2706    0.9527   22.3527 C   0  0  0  0  0  0  0  0  0  0  0  0
   13.6714    1.9126   23.1507 C   0  0  0  0  0  0  0  0  0  0  0  0
   12.3784    1.7306   23.6144 C   0  0  0  0  0  0  0  0  0  0  0  0
   12.2736   -0.3894   22.5063 C   0  0  0  0  0  0  0  0  0  0  0  0
   11.6654    0.5836   23.2932 C   0  0  0  0  0  0  0  0  0  0  0  0
   10.2474    0.3875   23.8000 C   0  0  2  0  0  0  0  0  0  0  0  0
   10.2311   -0.2425   25.1909 C   0  0  1  0  0  0  0  0  0  0  0  0
    9.4475   -0.4424   22.8938 N   0  0  0  0  0  0  0  0  0  0  0  0
    8.8617    0.0346   21.7897 C   0  0  0  0  0  0  0  0  0  0  0  0
    9.0498    1.1756   21.3738 O   0  0  0  0  0  0  0  0  0  0  0  0
    7.9539   -0.9414   21.0605 C   0  0  1  0  0  0  0  0  0  0  0  0
    7.2040   -0.2863   20.0074 N   0  0  0  0  0  0  0  0  0  0  0  0
    6.0700    0.4647   20.0942 C   0  0  0  0  0  0  0  0  0  0  0  0
    5.7732    0.7887   18.7752 C   0  0  0  0  0  0  0  0  0  0  0  0
    6.7374    0.2398   17.9584 N   0  0  0  0  0  0  0  0  0  0  0  0
    7.5883   -0.4022   18.7115 N   0  0  0  0  0  0  0  0  0  0  0  0
    5.3008    0.9176   21.1551 C   0  0  0  0  0  0  0  0  0  0  0  0
    4.2059    1.7196   20.8600 C   0  0  0  0  0  0  0  0  0  0  0  0
    3.8911    2.0466   19.5439 C   0  0  0  0  0  0  0  0  0  0  0  0
    4.6643    1.5827   18.4891 C   0  0  0  0  0  0  0  0  0  0  0  0
   15.2772    1.0908   21.9864 H   0  0  0  0  0  0  0  0  0  0  0  0
   14.2149    2.8082   23.4131 H   0  0  0  0  0  0  0  0  0  0  0  0
   11.9204    2.4890   24.2322 H   0  0  0  0  0  0  0  0  0  0  0  0
   11.7466   -1.3006   22.2648 H   0  0  0  0  0  0  0  0  0  0  0  0
    9.7755    1.3784   23.8747 H   0  0  0  0  0  0  0  0  0  0  0  0
    9.1906   -0.3691   25.5246 H   0  0  0  0  0  0  0  0  0  0  0  0
   10.7263   -1.2241   25.1545 H   0  0  0  0  0  0  0  0  0  0  0  0
   10.7651    0.4116   25.8959 H   0  0  0  0  0  0  0  0  0  0  0  0
    9.3344   -1.4118   23.1115 H   0  0  0  0  0  0  0  0  0  0  0  0
    8.5689   -1.7388   20.6181 H   0  0  0  0  0  0  0  0  0  0  0  0
    7.2483   -1.3798   21.7816 H   0  0  0  0  0  0  0  0  0  0  0  0
    5.5442    0.6562   22.1744 H   0  0  0  0  0  0  0  0  0  0  0  0
    3.5895    2.0950   21.6634 H   0  0  0  0  0  0  0  0  0  0  0  0
    3.0330    2.6702   19.3410 H   0  0  0  0  0  0  0  0  0  0  0  0
    4.4121    1.8316   17.4688 H   0  0  0  0  0  0  0  0  0  0  0  0
  1  2  1  0
  2  3  2  0
  2  6  1  0
  3  4  1  0
  3 23  1  0
  4  5  2  0
  4 24  1  0
  5  7  1  0
  5 25  1  0
  6  7  2  0
  6 26  1  0
  7  8  1  0
  8  9  1  0
  8 10  1  0
  8 27  1  1
  9 28  1  1
  9 29  1  0
  9 30  1  0
 10 11  1  0
 10 31  1  0
 11 12  2  0
 11 13  1  0
 13 14  1  0
 13 32  1  6
 13 33  1  0
 14 15  1  0
 14 18  1  0
 15 16  2  0
 15 19  1  0
 16 17  1  0
 16 22  1  0
 17 18  2  0
 19 20  2  0
 19 34  1  0
 20 21  1  0
 20 35  1  0
 21 22  2  0
 21 36  1  0
 22 37  1  0
M  END
$$$$
