
     RDKit          3D

 70 75  0  0  0  0  0  0  0  0999 V2000
    7.5097    4.1774   26.2902 C   0  0  0  0  0  0  0  0  0  0  0  0
    6.5859    4.8336   25.3372 N   0  0  0  0  0  0  0  0  0  0  0  0
    5.8388    3.9017   24.4203 C   0  0  0  0  0  0  0  0  0  0  0  0
    6.5831    3.6501   23.1033 C   0  0  0  0  0  0  0  0  0  0  0  0
    7.8154    2.8927   23.2543 N   0  0  0  0  0  0  0  0  0  0  0  0
    7.7560    1.4703   23.5190 C   0  0  0  0  0  0  0  0  0  0  0  0
    8.4729    0.6833   22.3910 C   0  0  2  0  0  0  0  0  0  0  0  0
    7.6877    0.9291   21.0912 C   0  0  0  0  0  0  0  0  0  0  0  0
    7.6880    1.9290   20.4039 O   0  0  0  0  0  0  0  0  0  0  0  0
    6.9189   -0.1828   20.8244 N   0  0  0  0  0  0  0  0  0  0  0  0
    5.8994   -0.1100   19.8459 C   0  0  0  0  0  0  0  0  0  0  0  0
    6.0598   -0.7648   18.6553 C   0  0  0  0  0  0  0  0  0  0  0  0
    5.2213   -0.6440   17.6009 N   0  0  0  0  0  0  0  0  0  0  0  0
    4.1727    0.1317   17.7526 C   0  0  0  0  0  0  0  0  0  0  0  0
    3.8467    0.8126   18.9592 C   0  0  0  0  0  0  0  0  0  0  0  0
    2.6773    1.6080   19.0884 C   0  0  0  0  0  0  0  0  0  0  0  0
    2.3464    2.1745   20.2883 C   0  0  0  0  0  0  0  0  0  0  0  0
    3.1781    1.9826   21.4126 C   0  0  0  0  0  0  0  0  0  0  0  0
    4.3261    1.2354   21.3046 C   0  0  0  0  0  0  0  0  0  0  0  0
    4.7120    0.6587   20.0627 C   0  0  0  0  0  0  0  0  0  0  0  0
    7.0938   -1.2745   21.7662 C   0  0  0  0  0  0  0  0  0  0  0  0
    8.3599   -0.8603   22.5410 C   0  0  2  0  0  0  0  0  0  0  0  0
    8.4470   -1.3939   23.9742 C   0  0  0  0  0  0  0  0  0  0  0  0
    9.6622   -1.0080   24.5936 O   0  0  0  0  0  0  0  0  0  0  0  0
   10.7085   -1.9402   24.4599 C   0  0  0  0  0  0  0  0  0  0  0  0
   11.8714   -1.4511   25.2830 C   0  0  0  0  0  0  0  0  0  0  0  0
   11.5363   -1.5241   26.6182 F   0  0  0  0  0  0  0  0  0  0  0  0
   13.2499   -2.0318   24.9666 C   0  0  0  0  0  0  0  0  0  0  0  0
   13.7480   -0.7426   24.5871 O   0  0  0  0  0  0  0  0  0  0  0  0
   12.4983   -0.1126   24.8928 C   0  0  0  0  0  0  0  0  0  0  0  0
    9.8835    1.2253   22.2925 C   0  0  0  0  0  0  0  0  0  0  0  0
   10.9607    0.4117   21.9161 C   0  0  0  0  0  0  0  0  0  0  0  0
   12.2353    0.9466   21.8307 C   0  0  0  0  0  0  0  0  0  0  0  0
   13.5706   -0.1052   21.4975 Cl  0  0  0  0  0  0  0  0  0  0  0  0
   12.4831    2.2964   22.0991 C   0  0  0  0  0  0  0  0  0  0  0  0
   11.4155    3.1069   22.4398 C   0  0  0  0  0  0  0  0  0  0  0  0
   10.1292    2.5839   22.5645 C   0  0  0  0  0  0  0  0  0  0  0  0
    9.0206    3.4977   23.0282 C   0  0  0  0  0  0  0  0  0  0  0  0
    9.1859    4.6999   23.2107 O   0  0  0  0  0  0  0  0  0  0  0  0
    8.2196    3.5436   25.7567 H   0  0  0  0  0  0  0  0  0  0  0  0
    6.9707    3.5485   27.0015 H   0  0  0  0  0  0  0  0  0  0  0  0
    8.0531    4.9424   26.8410 H   0  0  0  0  0  0  0  0  0  0  0  0
    5.8873    5.3854   25.8841 H   0  0  0  0  0  0  0  0  0  0  0  0
    7.1615    5.4560   24.7145 H   0  0  0  0  0  0  0  0  0  0  0  0
    4.8675    4.3474   24.1952 H   0  0  0  0  0  0  0  0  0  0  0  0
    5.6703    2.9516   24.9374 H   0  0  0  0  0  0  0  0  0  0  0  0
    5.9160    3.1174   22.4156 H   0  0  0  0  0  0  0  0  0  0  0  0
    6.8475    4.6021   22.6324 H   0  0  0  0  0  0  0  0  0  0  0  0
    8.2346    1.2429   24.4824 H   0  0  0  0  0  0  0  0  0  0  0  0
    6.7089    1.1650   23.5682 H   0  0  0  0  0  0  0  0  0  0  0  0
    6.9246   -1.4120   18.5135 H   0  0  0  0  0  0  0  0  0  0  0  0
    3.5029    0.2216   16.8988 H   0  0  0  0  0  0  0  0  0  0  0  0
    2.0607    1.7666   18.2106 H   0  0  0  0  0  0  0  0  0  0  0  0
    1.4432    2.7704   20.3799 H   0  0  0  0  0  0  0  0  0  0  0  0
    2.9120    2.4335   22.3644 H   0  0  0  0  0  0  0  0  0  0  0  0
    4.9439    1.0742   22.1813 H   0  0  0  0  0  0  0  0  0  0  0  0
    6.2164   -1.3920   22.4215 H   0  0  0  0  0  0  0  0  0  0  0  0
    7.2364   -2.2200   21.2296 H   0  0  0  0  0  0  0  0  0  0  0  0
    9.1982   -1.2815   21.9828 H   0  0  0  0  0  0  0  0  0  0  0  0
    8.3348   -2.4898   24.0049 H   0  0  0  0  0  0  0  0  0  0  0  0
    7.6385   -0.9708   24.5823 H   0  0  0  0  0  0  0  0  0  0  0  0
   11.0329   -2.0480   23.4129 H   0  0  0  0  0  0  0  0  0  0  0  0
   10.4000   -2.9342   24.8200 H   0  0  0  0  0  0  0  0  0  0  0  0
   13.7599   -2.4411   25.8450 H   0  0  0  0  0  0  0  0  0  0  0  0
   13.2879   -2.7481   24.1343 H   0  0  0  0  0  0  0  0  0  0  0  0
   12.5524    0.6047   25.7111 H   0  0  0  0  0  0  0  0  0  0  0  0
   12.0672    0.3824   24.0224 H   0  0  0  0  0  0  0  0  0  0  0  0
   10.8531   -0.6590   21.7839 H   0  0  0  0  0  0  0  0  0  0  0  0
   13.4978    2.6820   22.0998 H   0  0  0  0  0  0  0  0  0  0  0  0
   11.5757    4.1526   22.6745 H   0  0  0  0  0  0  0  0  0  0  0  0
  1  2  1  0
  2  3  1  0
  3  4  1  0
  4  5  1  0
  5  6  1  0
  7  6  1  1
  7  8  1  0
  8  9  2  0
  8 10  1  0
 10 11  1  0
 11 12  2  0
 12 13  1  0
 13 14  2  0
 14 15  1  0
 15 16  2  0
 16 17  1  0
 17 18  2  0
 18 19  1  0
 19 20  2  0
 10 21  1  0
 21 22  1  0
 22 23  1  0
 23 24  1  0
 24 25  1  0
 25 26  1  0
 26 27  1  0
 26 28  1  0
 28 29  1  0
 29 30  1  0
  7 31  1  0
 31 32  2  0
 32 33  1  0
 33 34  1  0
 33 35  2  0
 35 36  1  0
 36 37  2  0
 37 38  1  0
 38 39  2  0
 38  5  1  0
 22  7  1  0
 30 26  1  0
 37 31  1  0
 20 11  1  0
 20 15  1  0
  1 40  1  0
  1 41  1  0
  1 42  1  0
  2 43  1  0
  2 44  1  0
  3 45  1  0
  3 46  1  0
  4 47  1  0
  4 48  1  0
  6 49  1  0
  6 50  1  0
 12 51  1  0
 14 52  1  0
 16 53  1  0
 17 54  1  0
 18 55  1  0
 19 56  1  0
 21 57  1  0
 21 58  1  0
 22 59  1  6
 23 60  1  0
 23 61  1  0
 25 62  1  0
 25 63  1  0
 28 64  1  0
 28 65  1  0
 30 66  1  0
 30 67  1  0
 32 68  1  0
 35 69  1  0
 36 70  1  0
M  CHG  1   2   1
M  END
$$$$
