
     RDKit          3D

 72 77  0  0  0  0  0  0  0  0999 V2000
    8.4537   -1.3883   23.9539 C   0  0  0  0  0  0  0  0  0  0  0  0
    8.3685   -0.8174   22.5461 C   0  0  1  0  0  0  0  0  0  0  0  0
    7.1236   -1.2475   21.7617 C   0  0  0  0  0  0  0  0  0  0  0  0
    6.9062   -0.1393   20.8581 N   0  0  0  0  0  0  0  0  0  0  0  0
    5.8967   -0.0960   19.8676 C   0  0  0  0  0  0  0  0  0  0  0  0
    6.0430   -0.7765   18.6873 C   0  0  0  0  0  0  0  0  0  0  0  0
    5.2040   -0.6666   17.6281 N   0  0  0  0  0  0  0  0  0  0  0  0
    4.1539    0.1109   17.7646 C   0  0  0  0  0  0  0  0  0  0  0  0
    3.8289    0.7952   18.9709 C   0  0  0  0  0  0  0  0  0  0  0  0
    2.6520    1.5823   19.1016 C   0  0  0  0  0  0  0  0  0  0  0  0
    2.3288    2.1699   20.2950 C   0  0  0  0  0  0  0  0  0  0  0  0
    3.1905    2.0370   21.4069 C   0  0  0  0  0  0  0  0  0  0  0  0
    4.3505    1.3065   21.2993 C   0  0  0  0  0  0  0  0  0  0  0  0
    4.7093    0.6756   20.0714 C   0  0  0  0  0  0  0  0  0  0  0  0
    7.6538    0.9832   21.1371 C   0  0  0  0  0  0  0  0  0  0  0  0
    7.6145    1.9984   20.4784 O   0  0  0  0  0  0  0  0  0  0  0  0
    8.4734    0.7239   22.4204 C   0  0  1  0  0  0  0  0  0  0  0  0
    7.8089    1.4815   23.6106 C   0  0  0  0  0  0  0  0  0  0  0  0
    7.9321    2.9230   23.4894 N   0  0  0  0  0  0  0  0  0  0  0  0
    6.8140    3.8065   23.7761 C   0  0  0  0  0  0  0  0  0  0  0  0
    6.2734    4.4363   22.4937 C   0  0  0  0  0  0  0  0  0  0  0  0
    5.0394    5.2283   22.7416 N   0  0  1  0  0  0  0  0  0  0  0  0
    5.2874    6.4523   23.5877 C   0  0  0  0  0  0  0  0  0  0  0  0
    3.9998    7.2347   23.7678 C   0  0  0  0  0  0  0  0  0  0  0  0
    3.4347    7.6019   22.5275 O   0  0  0  0  0  0  0  0  0  0  0  0
    3.1419    6.4901   21.6716 C   0  0  0  0  0  0  0  0  0  0  0  0
    2.0129    5.6374   22.2556 C   0  0  0  0  0  0  0  0  0  0  0  0
    2.7309    7.1137   20.3477 C   0  0  0  0  0  0  0  0  0  0  0  0
    4.3980    5.6386   21.4522 C   0  0  0  0  0  0  0  0  0  0  0  0
    9.1001    3.5154   23.0874 C   0  0  0  0  0  0  0  0  0  0  0  0
    9.2872    4.7222   23.1791 O   0  0  0  0  0  0  0  0  0  0  0  0
   10.1503    2.5969   22.5288 C   0  0  0  0  0  0  0  0  0  0  0  0
   11.4228    3.1316   22.3208 C   0  0  0  0  0  0  0  0  0  0  0  0
   12.4966    2.3076   22.0551 C   0  0  0  0  0  0  0  0  0  0  0  0
   12.2723    0.9402   21.9431 C   0  0  0  0  0  0  0  0  0  0  0  0
   13.6381   -0.1078   21.6993 Cl  0  0  0  0  0  0  0  0  0  0  0  0
   11.0029    0.3946   22.0254 C   0  0  0  0  0  0  0  0  0  0  0  0
    9.9024    1.2313   22.3083 C   0  0  0  0  0  0  0  0  0  0  0  0
    7.6022   -1.0765   24.5711 H   0  0  0  0  0  0  0  0  0  0  0  0
    8.4726   -2.4816   23.9220 H   0  0  0  0  0  0  0  0  0  0  0  0
    9.3662   -1.0488   24.4531 H   0  0  0  0  0  0  0  0  0  0  0  0
    9.2045   -1.1999   21.9607 H   0  0  0  0  0  0  0  0  0  0  0  0
    6.2533   -1.4224   22.4072 H   0  0  0  0  0  0  0  0  0  0  0  0
    7.3086   -2.1679   21.2010 H   0  0  0  0  0  0  0  0  0  0  0  0
    6.8989   -1.4342   18.5401 H   0  0  0  0  0  0  0  0  0  0  0  0
    3.4772    0.2066   16.9099 H   0  0  0  0  0  0  0  0  0  0  0  0
    2.0238    1.7249   18.2285 H   0  0  0  0  0  0  0  0  0  0  0  0
    1.3976    2.7275   20.3906 H   0  0  0  0  0  0  0  0  0  0  0  0
    2.9448    2.5323   22.3450 H   0  0  0  0  0  0  0  0  0  0  0  0
    5.0054    1.2052   22.1586 H   0  0  0  0  0  0  0  0  0  0  0  0
    8.2768    1.1435   24.5430 H   0  0  0  0  0  0  0  0  0  0  0  0
    6.7493    1.2129   23.6803 H   0  0  0  0  0  0  0  0  0  0  0  0
    6.0127    3.2359   24.2629 H   0  0  0  0  0  0  0  0  0  0  0  0
    7.1664    4.5767   24.4689 H   0  0  0  0  0  0  0  0  0  0  0  0
    6.0512    3.6566   21.7572 H   0  0  0  0  0  0  0  0  0  0  0  0
    7.0408    5.0863   22.0635 H   0  0  0  0  0  0  0  0  0  0  0  0
    4.3844    4.5969   23.2410 H   0  0  0  0  0  0  0  0  0  0  0  0
    6.0354    7.0699   23.0791 H   0  0  0  0  0  0  0  0  0  0  0  0
    5.6820    6.1526   24.5603 H   0  0  0  0  0  0  0  0  0  0  0  0
    3.2941    6.6416   24.3677 H   0  0  0  0  0  0  0  0  0  0  0  0
    4.1975    8.1661   24.3060 H   0  0  0  0  0  0  0  0  0  0  0  0
    1.7108    4.8727   21.5316 H   0  0  0  0  0  0  0  0  0  0  0  0
    2.3241    5.1081   23.1639 H   0  0  0  0  0  0  0  0  0  0  0  0
    1.1463    6.2622   22.4897 H   0  0  0  0  0  0  0  0  0  0  0  0
    3.5459    7.7340   19.9604 H   0  0  0  0  0  0  0  0  0  0  0  0
    1.8500    7.7462   20.4857 H   0  0  0  0  0  0  0  0  0  0  0  0
    2.4996    6.3389   19.6085 H   0  0  0  0  0  0  0  0  0  0  0  0
    5.1327    6.2051   20.8689 H   0  0  0  0  0  0  0  0  0  0  0  0
    4.1430    4.7391   20.8805 H   0  0  0  0  0  0  0  0  0  0  0  0
   11.5583    4.2046   22.3815 H   0  0  0  0  0  0  0  0  0  0  0  0
   13.5068    2.6922   21.9716 H   0  0  0  0  0  0  0  0  0  0  0  0
   10.9250   -0.6704   21.8229 H   0  0  0  0  0  0  0  0  0  0  0  0
  1  2  1  0
  2  3  1  0
  3  4  1  0
  4  5  1  0
  5  6  2  0
  6  7  1  0
  7  8  2  0
  8  9  1  0
  9 10  2  0
 10 11  1  0
 11 12  2  0
 12 13  1  0
 13 14  2  0
  4 15  1  0
 15 16  2  0
 15 17  1  0
 17 18  1  1
 18 19  1  0
 19 20  1  0
 20 21  1  0
 21 22  1  0
 22 23  1  0
 23 24  1  0
 24 25  1  0
 25 26  1  0
 26 27  1  0
 26 28  1  0
 26 29  1  0
 19 30  1  0
 30 31  2  0
 30 32  1  0
 32 33  2  0
 33 34  1  0
 34 35  2  0
 35 36  1  0
 35 37  1  0
 37 38  2  0
 17  2  1  0
 29 22  1  0
 38 32  1  0
 14  5  1  0
 38 17  1  0
 14  9  1  0
  1 39  1  0
  1 40  1  0
  1 41  1  0
  2 42  1  6
  3 43  1  0
  3 44  1  0
  6 45  1  0
  8 46  1  0
 10 47  1  0
 11 48  1  0
 12 49  1  0
 13 50  1  0
 18 51  1  0
 18 52  1  0
 20 53  1  0
 20 54  1  0
 21 55  1  0
 21 56  1  0
 22 57  1  1
 23 58  1  0
 23 59  1  0
 24 60  1  0
 24 61  1  0
 27 62  1  0
 27 63  1  0
 27 64  1  0
 28 65  1  0
 28 66  1  0
 28 67  1  0
 29 68  1  0
 29 69  1  0
 33 70  1  0
 34 71  1  0
 37 72  1  0
M  CHG  1  22   1
M  END
$$$$
