
     RDKit          3D

 58 62  0  0  0  0  0  0  0  0999 V2000
    5.3284    6.4695   23.5504 C   0  0  0  0  0  0  0  0  0  0  0  0
    5.0629    5.2163   22.8148 N   0  0  0  0  0  0  0  0  0  0  0  0
    6.2962    4.4249   22.5027 C   0  0  0  0  0  0  0  0  0  0  0  0
    6.9223    3.7690   23.7438 C   0  0  0  0  0  0  0  0  0  0  0  0
    8.0082    2.8813   23.3674 N   0  0  0  0  0  0  0  0  0  0  0  0
    7.9084    1.4450   23.5394 C   0  0  0  0  0  0  0  0  0  0  0  0
    8.5553    0.6784   22.3450 C   0  0  2  0  0  0  0  0  0  0  0  0
    7.6669    0.9489   21.0994 C   0  0  0  0  0  0  0  0  0  0  0  0
    7.5943    1.9676   20.4476 O   0  0  0  0  0  0  0  0  0  0  0  0
    6.8993   -0.1681   20.8570 N   0  0  0  0  0  0  0  0  0  0  0  0
    5.8790   -0.1327   19.8827 C   0  0  0  0  0  0  0  0  0  0  0  0
    6.0384   -0.8063   18.7005 C   0  0  0  0  0  0  0  0  0  0  0  0
    5.2083   -0.6839   17.6403 N   0  0  0  0  0  0  0  0  0  0  0  0
    4.1572    0.0903   17.7879 C   0  0  0  0  0  0  0  0  0  0  0  0
    3.8228    0.7613   18.9987 C   0  0  0  0  0  0  0  0  0  0  0  0
    2.6394    1.5350   19.1308 C   0  0  0  0  0  0  0  0  0  0  0  0
    2.3210    2.1309   20.3201 C   0  0  0  0  0  0  0  0  0  0  0  0
    3.1910    2.0144   21.4258 C   0  0  0  0  0  0  0  0  0  0  0  0
    4.3542    1.2922   21.3193 C   0  0  0  0  0  0  0  0  0  0  0  0
    4.7019    0.6460   20.0950 C   0  0  0  0  0  0  0  0  0  0  0  0
    7.1587   -1.2920   21.7246 C   0  0  0  0  0  0  0  0  0  0  0  0
    8.4254   -0.8711   22.4917 C   0  0  2  0  0  0  0  0  0  0  0  0
    8.4687   -1.4030   23.9193 C   0  0  0  0  0  0  0  0  0  0  0  0
    9.9899    1.2013   22.2029 C   0  0  0  0  0  0  0  0  0  0  0  0
   11.0923    0.3990   21.7746 C   0  0  0  0  0  0  0  0  0  0  0  0
   12.3038    0.9865   21.7311 C   0  0  0  0  0  0  0  0  0  0  0  0
   14.4347    1.2082   21.9115 F   0  0  0  0  0  0  0  0  0  0  0  0
   12.5600    2.3138   21.9208 C   0  0  0  0  0  0  0  0  0  0  0  0
   11.4856    3.1337   22.2290 C   0  0  0  0  0  0  0  0  0  0  0  0
   10.2393    2.5604   22.4525 C   0  0  0  0  0  0  0  0  0  0  0  0
    9.1803    3.4716   23.0030 C   0  0  0  0  0  0  0  0  0  0  0  0
    9.3652    4.6765   23.1156 O   0  0  0  0  0  0  0  0  0  0  0  0
    6.0815    7.0630   23.0277 H   0  0  0  0  0  0  0  0  0  0  0  0
    5.7094    6.2730   24.5527 H   0  0  0  0  0  0  0  0  0  0  0  0
    4.4154    7.0549   23.6318 H   0  0  0  0  0  0  0  0  0  0  0  0
    4.4427    4.6058   23.3988 H   0  0  0  0  0  0  0  0  0  0  0  0
    4.5693    5.4604   21.9299 H   0  0  0  0  0  0  0  0  0  0  0  0
    6.0238    3.6663   21.7707 H   0  0  0  0  0  0  0  0  0  0  0  0
    7.0322    5.0892   22.0484 H   0  0  0  0  0  0  0  0  0  0  0  0
    7.3268    4.5243   24.4270 H   0  0  0  0  0  0  0  0  0  0  0  0
    6.1801    3.1800   24.2922 H   0  0  0  0  0  0  0  0  0  0  0  0
    6.8511    1.1773   23.6309 H   0  0  0  0  0  0  0  0  0  0  0  0
    8.4183    1.1523   24.4658 H   0  0  0  0  0  0  0  0  0  0  0  0
    6.9041   -1.4535   18.5619 H   0  0  0  0  0  0  0  0  0  0  0  0
    3.4898    0.1896   16.9314 H   0  0  0  0  0  0  0  0  0  0  0  0
    2.0033    1.6631   18.2635 H   0  0  0  0  0  0  0  0  0  0  0  0
    1.3954    2.6913   20.4165 H   0  0  0  0  0  0  0  0  0  0  0  0
    2.9369    2.4997   22.3647 H   0  0  0  0  0  0  0  0  0  0  0  0
    5.0208    1.2228   22.1731 H   0  0  0  0  0  0  0  0  0  0  0  0
    7.3298   -2.2002   21.1360 H   0  0  0  0  0  0  0  0  0  0  0  0
    6.3150   -1.4922   22.4001 H   0  0  0  0  0  0  0  0  0  0  0  0
    9.2605   -1.3049   21.9376 H   0  0  0  0  0  0  0  0  0  0  0  0
    7.5982   -1.0641   24.4915 H   0  0  0  0  0  0  0  0  0  0  0  0
    9.3689   -1.0647   24.4422 H   0  0  0  0  0  0  0  0  0  0  0  0
    8.4621   -2.4961   23.9219 H   0  0  0  0  0  0  0  0  0  0  0  0
   10.9468   -0.6319   21.4715 H   0  0  0  0  0  0  0  0  0  0  0  0
   13.5649    2.6610   21.8143 H   0  0  0  0  0  0  0  0  0  0  0  0
   11.5764    4.2098   22.3372 H   0  0  0  0  0  0  0  0  0  0  0  0
  1  2  1  0
  2  3  1  0
  3  4  1  0
  4  5  1  0
  5  6  1  0
  7  6  1  1
  7  8  1  0
  8  9  2  0
  8 10  1  0
 10 11  1  0
 11 12  2  0
 12 13  1  0
 13 14  2  0
 14 15  1  0
 15 16  2  0
 16 17  1  0
 17 18  2  0
 18 19  1  0
 19 20  2  0
 10 21  1  0
 21 22  1  0
 22 23  1  0
  7 24  1  0
 24 25  2  0
 25 26  1  0
 26 27  1  0
 26 28  2  0
 28 29  1  0
 29 30  2  0
 30 31  1  0
 31 32  2  0
 31  5  1  0
 22  7  1  0
 30 24  1  0
 20 11  1  0
 20 15  1  0
  1 33  1  0
  1 34  1  0
  1 35  1  0
  2 36  1  0
  2 37  1  0
  3 38  1  0
  3 39  1  0
  4 40  1  0
  4 41  1  0
  6 42  1  0
  6 43  1  0
 12 44  1  0
 14 45  1  0
 16 46  1  0
 17 47  1  0
 18 48  1  0
 19 49  1  0
 21 50  1  0
 21 51  1  0
 22 52  1  6
 23 53  1  0
 23 54  1  0
 23 55  1  0
 25 56  1  0
 28 57  1  0
 29 58  1  0
M  CHG  1   2   1
M  END
$$$$
