
     RDKit          3D

 69 74  0  0  0  0  0  0  0  0999 V2000
    2.3628    6.6615   20.4468 C   0  0  0  0  0  0  0  0  0  0  0  0
    3.0228    6.2003   21.7279 C   0  0  1  0  0  0  0  0  0  0  0  0
    4.3520    5.5078   21.4643 C   0  0  0  0  0  0  0  0  0  0  0  0
    4.9905    5.0899   22.7522 N   0  0  1  0  0  0  0  0  0  0  0  0
    6.2804    4.4053   22.5016 C   0  0  0  0  0  0  0  0  0  0  0  0
    6.8374    3.7309   23.7538 C   0  0  0  0  0  0  0  0  0  0  0  0
    7.9549    2.8765   23.3942 N   0  0  0  0  0  0  0  0  0  0  0  0
    7.9071    1.4353   23.5498 C   0  0  0  0  0  0  0  0  0  0  0  0
    8.5982    0.7121   22.3604 C   0  0  2  0  0  0  0  0  0  0  0  0
    7.7487    0.9723   21.0920 C   0  0  0  0  0  0  0  0  0  0  0  0
    7.6980    1.9809   20.4194 O   0  0  0  0  0  0  0  0  0  0  0  0
    6.9651   -0.1346   20.8506 N   0  0  0  0  0  0  0  0  0  0  0  0
    5.9316   -0.0899   19.8827 C   0  0  0  0  0  0  0  0  0  0  0  0
    6.0742   -0.7766   18.7038 C   0  0  0  0  0  0  0  0  0  0  0  0
    5.2346   -0.6698   17.6467 N   0  0  0  0  0  0  0  0  0  0  0  0
    4.1850    0.1059   17.7939 C   0  0  0  0  0  0  0  0  0  0  0  0
    3.8616    0.7960   18.9975 C   0  0  0  0  0  0  0  0  0  0  0  0
    2.6774    1.5706   19.1210 C   0  0  0  0  0  0  0  0  0  0  0  0
    2.3507    2.1644   20.3095 C   0  0  0  0  0  0  0  0  0  0  0  0
    3.2124    2.0380   21.4208 C   0  0  0  0  0  0  0  0  0  0  0  0
    4.3856    1.3279   21.3174 C   0  0  0  0  0  0  0  0  0  0  0  0
    4.7468    0.6867   20.0948 C   0  0  0  0  0  0  0  0  0  0  0  0
    7.2181   -1.2533   21.7288 C   0  0  0  0  0  0  0  0  0  0  0  0
    8.5006   -0.8411   22.4832 C   0  0  2  0  0  0  0  0  0  0  0  0
    8.5296   -1.4035   23.9038 C   0  0  0  0  0  0  0  0  0  0  0  0
   10.0025    1.2980   22.2640 C   0  0  0  0  0  0  0  0  0  0  0  0
   11.1446    0.5363   22.0044 C   0  0  0  0  0  0  0  0  0  0  0  0
   12.3713    1.1544   21.8484 C   0  0  0  0  0  0  0  0  0  0  0  0
   13.7678    0.1697   21.5564 Cl  0  0  0  0  0  0  0  0  0  0  0  0
   12.5219    2.5425   21.8970 C   0  0  0  0  0  0  0  0  0  0  0  0
   11.4015    3.3063   22.1716 C   0  0  0  0  0  0  0  0  0  0  0  0
   10.1844    2.6797   22.4414 C   0  0  0  0  0  0  0  0  0  0  0  0
    9.0979    3.5240   23.0151 C   0  0  0  0  0  0  0  0  0  0  0  0
    9.2364    4.7342   23.1408 O   0  0  0  0  0  0  0  0  0  0  0  0
    5.1085    6.2801   23.6714 C   0  0  0  0  0  0  0  0  0  0  0  0
    3.7562    6.9625   23.8127 C   0  0  0  0  0  0  0  0  0  0  0  0
    3.2177    7.3350   22.5619 O   0  0  0  0  0  0  0  0  0  0  0  0
    1.4235    7.1729   20.6673 H   0  0  0  0  0  0  0  0  0  0  0  0
    2.1556    5.8038   19.7959 H   0  0  0  0  0  0  0  0  0  0  0  0
    3.0216    7.3557   19.9136 H   0  0  0  0  0  0  0  0  0  0  0  0
    2.3724    5.4813   22.2571 H   0  0  0  0  0  0  0  0  0  0  0  0
    4.2141    4.6198   20.8391 H   0  0  0  0  0  0  0  0  0  0  0  0
    5.0294    6.1912   20.9384 H   0  0  0  0  0  0  0  0  0  0  0  0
    4.3609    4.3902   23.1942 H   0  0  0  0  0  0  0  0  0  0  0  0
    6.1361    3.6602   21.7122 H   0  0  0  0  0  0  0  0  0  0  0  0
    7.0044    5.1372   22.1300 H   0  0  0  0  0  0  0  0  0  0  0  0
    6.0483    3.1509   24.2522 H   0  0  0  0  0  0  0  0  0  0  0  0
    7.1915    4.4880   24.4604 H   0  0  0  0  0  0  0  0  0  0  0  0
    8.4134    1.1383   24.4779 H   0  0  0  0  0  0  0  0  0  0  0  0
    6.8585    1.1248   23.6209 H   0  0  0  0  0  0  0  0  0  0  0  0
    6.9355   -1.4280   18.5631 H   0  0  0  0  0  0  0  0  0  0  0  0
    3.5101    0.1945   16.9427 H   0  0  0  0  0  0  0  0  0  0  0  0
    2.0458    1.6876   18.2484 H   0  0  0  0  0  0  0  0  0  0  0  0
    1.4333    2.7430   20.3959 H   0  0  0  0  0  0  0  0  0  0  0  0
    2.9511    2.5235   22.3572 H   0  0  0  0  0  0  0  0  0  0  0  0
    5.0350    1.2412   22.1818 H   0  0  0  0  0  0  0  0  0  0  0  0
    7.3480   -2.1790   21.1531 H   0  0  0  0  0  0  0  0  0  0  0  0
    6.3789   -1.4187   22.4215 H   0  0  0  0  0  0  0  0  0  0  0  0
    9.3358   -1.2638   21.9175 H   0  0  0  0  0  0  0  0  0  0  0  0
    9.4253   -1.0887   24.4490 H   0  0  0  0  0  0  0  0  0  0  0  0
    7.6544   -1.0667   24.4738 H   0  0  0  0  0  0  0  0  0  0  0  0
    8.5077   -2.4988   23.8940 H   0  0  0  0  0  0  0  0  0  0  0  0
   11.0974   -0.5418   21.8985 H   0  0  0  0  0  0  0  0  0  0  0  0
   13.4786    3.0191   21.7178 H   0  0  0  0  0  0  0  0  0  0  0  0
   11.4609    4.3886   22.2241 H   0  0  0  0  0  0  0  0  0  0  0  0
    5.4654    5.9500   24.6487 H   0  0  0  0  0  0  0  0  0  0  0  0
    5.8412    6.9750   23.2458 H   0  0  0  0  0  0  0  0  0  0  0  0
    3.0646    6.2789   24.3354 H   0  0  0  0  0  0  0  0  0  0  0  0
    3.8519    7.8746   24.4079 H   0  0  0  0  0  0  0  0  0  0  0  0
  1  2  1  0
  2  3  1  0
  3  4  1  0
  4  5  1  0
  5  6  1  0
  6  7  1  0
  7  8  1  0
  9  8  1  1
  9 10  1  0
 10 11  2  0
 10 12  1  0
 12 13  1  0
 13 14  2  0
 14 15  1  0
 15 16  2  0
 16 17  1  0
 17 18  2  0
 18 19  1  0
 19 20  2  0
 20 21  1  0
 21 22  2  0
 12 23  1  0
 23 24  1  0
 24 25  1  0
  9 26  1  0
 26 27  2  0
 27 28  1  0
 28 29  1  0
 28 30  2  0
 30 31  1  0
 31 32  2  0
 32 33  1  0
 33 34  2  0
  4 35  1  0
 35 36  1  0
 36 37  1  0
 37  2  1  0
 33  7  1  0
 24  9  1  0
 32 26  1  0
 22 13  1  0
 22 17  1  0
  1 38  1  0
  1 39  1  0
  1 40  1  0
  2 41  1  1
  3 42  1  0
  3 43  1  0
  4 44  1  1
  5 45  1  0
  5 46  1  0
  6 47  1  0
  6 48  1  0
  8 49  1  0
  8 50  1  0
 14 51  1  0
 16 52  1  0
 18 53  1  0
 19 54  1  0
 20 55  1  0
 21 56  1  0
 23 57  1  0
 23 58  1  0
 24 59  1  6
 25 60  1  0
 25 61  1  0
 25 62  1  0
 27 63  1  0
 30 64  1  0
 31 65  1  0
 35 66  1  0
 35 67  1  0
 36 68  1  0
 36 69  1  0
M  CHG  1   4   1
M  END
$$$$
