mobile
  PyMOL3.1          3D                             0

 62 67  0  0  0  0  0  0  0  0999 V2000
   -8.9972    0.0728  -21.1063 O   0  0  0  0  0  0  0  0  0  0  0  0
   -8.4546   -0.8773  -21.6546 C   0  0  0  0  0  0  0  0  0  0  0  0
   -7.2706   -1.3737  -21.2278 N   0  0  0  0  0  0  0  0  0  0  0  0
   -6.5511   -0.8906  -20.1170 C   0  0  0  0  0  0  0  0  0  0  0  0
   -5.4058   -0.0634  -20.3462 C   0  0  0  0  0  0  0  0  0  0  0  0
   -4.9132    0.2637  -21.6349 C   0  0  0  0  0  0  0  0  0  0  0  0
   -3.8278    1.0823  -21.7849 C   0  0  0  0  0  0  0  0  0  0  0  0
   -3.1785    1.6072  -20.6767 C   0  0  0  0  0  0  0  0  0  0  0  0
   -3.6149    1.3215  -19.4157 C   0  0  0  0  0  0  0  0  0  0  0  0
   -4.7354    0.4796  -19.2139 C   0  0  0  0  0  0  0  0  0  0  0  0
   -5.2442    0.1620  -17.9295 C   0  0  0  0  0  0  0  0  0  0  0  0
   -6.3009   -0.6118  -17.7178 N   0  0  0  0  0  0  0  0  0  0  0  0
   -6.9304   -1.1106  -18.7911 C   0  0  0  0  0  0  0  0  0  0  0  0
   -9.0650   -1.5213  -22.9125 C   0  0  0  0  0  0  0  0  0  0  0  0
  -10.5739   -1.2383  -22.8969 C   0  0  0  0  0  0  0  0  0  0  0  0
  -11.4280   -2.0246  -22.1299 C   0  0  0  0  0  0  0  0  0  0  0  0
  -12.7783   -1.7334  -22.0960 C   0  0  0  0  0  0  0  0  0  0  0  0
  -13.8165   -2.6754  -21.0614 Cl  0  0  0  0  0  0  0  0  0  0  0  0
  -13.3176   -0.6903  -22.8193 C   0  0  0  0  0  0  0  0  0  0  0  0
  -12.4878    0.0849  -23.6105 C   0  0  0  0  0  0  0  0  0  0  0  0
  -11.1317   -0.1962  -23.6534 C   0  0  0  0  0  0  0  0  0  0  0  0
  -10.4034    0.5462  -24.5497 O   0  0  0  0  0  0  0  0  0  0  0  0
   -8.9810    0.6018  -24.2934 C   0  0  0  0  0  0  0  0  0  0  0  0
   -8.3850   -0.7735  -24.0846 C   0  0  0  0  0  0  0  0  0  0  0  0
   -8.8353   -3.0495  -23.0009 C   0  0  0  0  0  0  0  0  0  0  0  0
   -9.3385   -3.6865  -24.2803 C   0  0  0  0  0  0  0  0  0  0  0  0
  -10.0604   -3.0851  -25.0629 O   0  0  0  0  0  0  0  0  0  0  0  0
   -8.9839   -4.9586  -24.5616 N   0  0  0  0  0  0  0  0  0  0  0  0
   -9.7987   -5.7984  -25.4456 C   0  0  0  0  0  0  0  0  0  0  0  0
   -9.1459   -5.8918  -26.8079 C   0  0  0  0  0  0  0  0  0  0  0  0
   -7.7313   -6.2317  -26.6211 N   0  0  0  0  0  0  0  0  0  0  0  0
   -7.0553   -6.1083  -25.4566 C   0  0  0  0  0  0  0  0  0  0  0  0
   -7.6935   -5.5638  -24.2007 C   0  0  0  0  0  0  0  0  0  0  0  0
   -7.8391   -6.6714  -23.1685 C   0  0  0  0  0  0  0  0  0  0  0  0
   -5.8175   -6.5287  -25.6023 N   0  0  0  0  0  0  0  0  0  0  0  0
   -5.6816   -6.9436  -26.9275 N   0  0  0  0  0  0  0  0  0  0  0  0
   -6.8401   -6.7517  -27.5005 C   0  0  0  0  0  0  0  0  0  0  0  0
   -6.8784   -2.1398  -21.7370 H   0  0  0  0  0  0  0  0  0  0  0  0
   -5.4025   -0.1388  -22.5105 H   0  0  0  0  0  0  0  0  0  0  0  0
   -3.4728    1.3225  -22.7763 H   0  0  0  0  0  0  0  0  0  0  0  0
   -2.3199    2.2479  -20.8134 H   0  0  0  0  0  0  0  0  0  0  0  0
   -3.1008    1.7414  -18.5630 H   0  0  0  0  0  0  0  0  0  0  0  0
   -4.7380    0.5747  -17.0699 H   0  0  0  0  0  0  0  0  0  0  0  0
   -7.7972   -1.7300  -18.6168 H   0  0  0  0  0  0  0  0  0  0  0  0
  -11.0381   -2.8576  -21.5639 H   0  0  0  0  0  0  0  0  0  0  0  0
  -14.3754   -0.4799  -22.7690 H   0  0  0  0  0  0  0  0  0  0  0  0
  -12.8931    0.9012  -24.1885 H   0  0  0  0  0  0  0  0  0  0  0  0
   -8.4841    1.0755  -25.1532 H   0  0  0  0  0  0  0  0  0  0  0  0
   -8.8075    1.2040  -23.3905 H   0  0  0  0  0  0  0  0  0  0  0  0
   -8.5148   -1.3607  -25.0052 H   0  0  0  0  0  0  0  0  0  0  0  0
   -7.3129   -0.6662  -23.8643 H   0  0  0  0  0  0  0  0  0  0  0  0
   -7.7539   -3.2391  -22.9241 H   0  0  0  0  0  0  0  0  0  0  0  0
   -9.3520   -3.5239  -22.1534 H   0  0  0  0  0  0  0  0  0  0  0  0
   -9.8877   -6.8062  -25.0132 H   0  0  0  0  0  0  0  0  0  0  0  0
  -10.7996   -5.3545  -25.5499 H   0  0  0  0  0  0  0  0  0  0  0  0
   -9.6405   -6.6734  -27.4040 H   0  0  0  0  0  0  0  0  0  0  0  0
   -9.2295   -4.9256  -27.3273 H   0  0  0  0  0  0  0  0  0  0  0  0
   -7.0362   -4.7859  -23.7842 H   0  0  0  0  0  0  0  0  0  0  0  0
   -6.8489   -7.0887  -22.9348 H   0  0  0  0  0  0  0  0  0  0  0  0
   -8.2901   -6.2623  -22.2529 H   0  0  0  0  0  0  0  0  0  0  0  0
   -8.4851   -7.4658  -23.5716 H   0  0  0  0  0  0  0  0  0  0  0  0
   -7.0584   -6.9771  -28.5347 H   0  0  0  0  0  0  0  0  0  0  0  0
  1  2  2  0  0  0  0
  2  3  1  0  0  0  0
  2 14  1  0  0  0  0
  3  4  1  0  0  0  0
  3 38  1  0  0  0  0
  4  5  4  0  0  0  0
  4 13  4  0  0  0  0
  5  6  4  0  0  0  0
  5 10  4  0  0  0  0
  6  7  4  0  0  0  0
  6 39  1  0  0  0  0
  7  8  4  0  0  0  0
  7 40  1  0  0  0  0
  8  9  4  0  0  0  0
  8 41  1  0  0  0  0
  9 10  4  0  0  0  0
  9 42  1  0  0  0  0
 10 11  4  0  0  0  0
 11 12  4  0  0  0  0
 11 43  1  0  0  0  0
 12 13  4  0  0  0  0
 13 44  1  0  0  0  0
 14 15  1  0  0  0  0
 14 24  1  0  0  0  0
 14 25  1  0  0  0  0
 15 16  4  0  0  0  0
 15 21  4  0  0  0  0
 16 17  4  0  0  0  0
 16 45  1  0  0  0  0
 17 18  1  0  0  0  0
 17 19  4  0  0  0  0
 19 20  4  0  0  0  0
 19 46  1  0  0  0  0
 20 21  4  0  0  0  0
 20 47  1  0  0  0  0
 21 22  1  0  0  0  0
 22 23  1  0  0  0  0
 23 24  1  0  0  0  0
 23 48  1  0  0  0  0
 23 49  1  0  0  0  0
 24 50  1  0  0  0  0
 24 51  1  0  0  0  0
 25 26  1  0  0  0  0
 25 52  1  0  0  0  0
 25 53  1  0  0  0  0
 26 27  2  0  0  0  0
 26 28  1  0  0  0  0
 28 29  1  0  0  0  0
 28 33  1  0  0  0  0
 29 30  1  0  0  0  0
 29 54  1  0  0  0  0
 29 55  1  0  0  0  0
 30 31  1  0  0  0  0
 30 56  1  0  0  0  0
 30 57  1  0  0  0  0
 31 32  4  0  0  0  0
 31 37  4  0  0  0  0
 32 33  1  0  0  0  0
 32 35  4  0  0  0  0
 33 34  1  0  0  0  0
 33 58  1  0  0  0  0
 34 59  1  0  0  0  0
 34 60  1  0  0  0  0
 34 61  1  0  0  0  0
 35 36  4  0  0  0  0
 36 37  4  0  0  0  0
 37 62  1  0  0  0  0
M  END
$$$$
