
     RDKit          3D

 50 53  0  0  0  0  0  0  0  0999 V2000
   -9.8511   -3.3762  -25.5328 O   0  0  0  0  0  0  0  0  0  0  0  0
   -9.3299   -3.9806  -24.6108 C   0  0  0  0  0  0  0  0  0  0  0  0
   -8.7574   -3.2088  -23.4125 C   0  0  0  0  0  0  0  0  0  0  0  0
   -9.2493   -1.7972  -23.4944 C   0  0  0  0  0  0  0  0  0  0  0  0
   -8.4339   -0.8257  -24.0061 C   0  0  0  0  0  0  0  0  0  0  0  0
   -8.8260    0.4279  -24.3328 N   0  0  0  0  0  0  0  0  0  0  0  0
  -10.0971    0.7160  -24.1709 C   0  0  0  0  0  0  0  0  0  0  0  0
  -11.0632   -0.1970  -23.6700 C   0  0  0  0  0  0  0  0  0  0  0  0
  -12.4435    0.1174  -23.6183 C   0  0  0  0  0  0  0  0  0  0  0  0
  -13.3472   -0.7843  -23.1239 C   0  0  0  0  0  0  0  0  0  0  0  0
  -12.8985   -2.0284  -22.6342 C   0  0  0  0  0  0  0  0  0  0  0  0
  -11.5709   -2.3766  -22.7141 C   0  0  0  0  0  0  0  0  0  0  0  0
  -10.6177   -1.4784  -23.2702 C   0  0  0  0  0  0  0  0  0  0  0  0
   -9.3376   -5.3730  -24.5785 N   0  0  0  0  0  0  0  0  0  0  0  0
  -10.0218   -5.9472  -25.7514 C   0  0  0  0  0  0  0  0  0  0  0  0
   -9.1119   -5.8442  -26.9763 C   0  0  0  0  0  0  0  0  0  0  0  0
   -7.7523   -6.4867  -26.6923 C   0  0  0  0  0  0  0  0  0  0  0  0
   -7.1251   -6.0541  -25.3604 C   0  0  0  0  0  0  0  0  0  0  0  0
   -8.1578   -6.2119  -24.2373 C   0  0  1  0  0  0  0  0  0  0  0  0
   -7.5908   -6.1090  -22.8067 C   0  0  0  0  0  0  0  0  0  0  0  0
   -6.3697   -6.9953  -22.6040 C   0  0  0  0  0  0  0  0  0  0  0  0
   -5.1738   -6.3950  -22.2070 C   0  0  0  0  0  0  0  0  0  0  0  0
   -4.0149   -7.1397  -22.0079 C   0  0  0  0  0  0  0  0  0  0  0  0
   -4.0299   -8.5139  -22.2106 C   0  0  0  0  0  0  0  0  0  0  0  0
   -5.2140   -9.1316  -22.6059 C   0  0  0  0  0  0  0  0  0  0  0  0
   -6.3710   -8.3797  -22.8181 C   0  0  0  0  0  0  0  0  0  0  0  0
   -7.6623   -3.2376  -23.4823 H   0  0  0  0  0  0  0  0  0  0  0  0
   -9.0518   -3.7337  -22.4976 H   0  0  0  0  0  0  0  0  0  0  0  0
   -7.3779   -1.0323  -24.1808 H   0  0  0  0  0  0  0  0  0  0  0  0
  -10.4166    1.7176  -24.4481 H   0  0  0  0  0  0  0  0  0  0  0  0
  -12.7796    1.0795  -23.9906 H   0  0  0  0  0  0  0  0  0  0  0  0
  -14.4017   -0.5316  -23.0578 H   0  0  0  0  0  0  0  0  0  0  0  0
  -13.6131   -2.7148  -22.1939 H   0  0  0  0  0  0  0  0  0  0  0  0
  -11.2549   -3.3491  -22.3562 H   0  0  0  0  0  0  0  0  0  0  0  0
  -10.2806   -6.9967  -25.5331 H   0  0  0  0  0  0  0  0  0  0  0  0
  -10.9539   -5.4064  -25.9321 H   0  0  0  0  0  0  0  0  0  0  0  0
   -8.9928   -4.7864  -27.2343 H   0  0  0  0  0  0  0  0  0  0  0  0
   -9.5839   -6.3261  -27.8389 H   0  0  0  0  0  0  0  0  0  0  0  0
   -7.0684   -6.2969  -27.5274 H   0  0  0  0  0  0  0  0  0  0  0  0
   -7.8885   -7.5765  -26.6460 H   0  0  0  0  0  0  0  0  0  0  0  0
   -6.2565   -6.6878  -25.1526 H   0  0  0  0  0  0  0  0  0  0  0  0
   -6.7719   -5.0144  -25.3889 H   0  0  0  0  0  0  0  0  0  0  0  0
   -8.5261   -7.2410  -24.3038 H   0  0  0  0  0  0  0  0  0  0  0  0
   -7.2862   -5.0908  -22.5584 H   0  0  0  0  0  0  0  0  0  0  0  0
   -8.3781   -6.3950  -22.0948 H   0  0  0  0  0  0  0  0  0  0  0  0
   -5.1510   -5.3182  -22.0544 H   0  0  0  0  0  0  0  0  0  0  0  0
   -3.0895   -6.6429  -21.7349 H   0  0  0  0  0  0  0  0  0  0  0  0
   -3.1245   -9.1030  -22.0729 H   0  0  0  0  0  0  0  0  0  0  0  0
   -5.2238  -10.2053  -22.7778 H   0  0  0  0  0  0  0  0  0  0  0  0
   -7.2814   -8.8762  -23.1560 H   0  0  0  0  0  0  0  0  0  0  0  0
  1  2  2  0
  2  3  1  0
  3  4  1  0
  4  5  2  0
  5  6  1  0
  6  7  2  0
  7  8  1  0
  8  9  2  0
  9 10  1  0
 10 11  2  0
 11 12  1  0
 12 13  2  0
  2 14  1  0
 14 15  1  0
 15 16  1  0
 16 17  1  0
 17 18  1  0
 18 19  1  0
 19 20  1  0
 20 21  1  0
 21 22  2  0
 22 23  1  0
 23 24  2  0
 24 25  1  0
 25 26  2  0
 13  4  1  0
 19 14  1  0
 26 21  1  0
 13  8  1  0
  3 27  1  0
  3 28  1  0
  5 29  1  0
  7 30  1  0
  9 31  1  0
 10 32  1  0
 11 33  1  0
 12 34  1  0
 15 35  1  0
 15 36  1  0
 16 37  1  0
 16 38  1  0
 17 39  1  0
 17 40  1  0
 18 41  1  0
 18 42  1  0
 19 43  1  1
 20 44  1  0
 20 45  1  0
 22 46  1  0
 23 47  1  0
 24 48  1  0
 25 49  1  0
 26 50  1  0
M  END
