
     RDKit          3D

 50 53  0  0  0  0  0  0  0  0999 V2000
   10.3304   -2.2244   25.4711 O   0  0  0  0  0  0  0  0  0  0  0  0
    9.8151   -2.8583   24.5657 C   0  0  0  0  0  0  0  0  0  0  0  0
    9.2019   -2.1226   23.3649 C   0  0  0  0  0  0  0  0  0  0  0  0
    9.6509   -0.6954   23.4190 C   0  0  0  0  0  0  0  0  0  0  0  0
    8.8132    0.2581   23.9285 C   0  0  0  0  0  0  0  0  0  0  0  0
    9.1709    1.5279   24.2311 N   0  0  0  0  0  0  0  0  0  0  0  0
   10.4300    1.8526   24.0463 C   0  0  0  0  0  0  0  0  0  0  0  0
   11.4167    0.9623   23.5446 C   0  0  0  0  0  0  0  0  0  0  0  0
   12.7857    1.3183   23.4680 C   0  0  0  0  0  0  0  0  0  0  0  0
   13.7098    0.4375   22.9735 C   0  0  0  0  0  0  0  0  0  0  0  0
   13.2929   -0.8270   22.5086 C   0  0  0  0  0  0  0  0  0  0  0  0
   11.9780   -1.2147   22.6131 C   0  0  0  0  0  0  0  0  0  0  0  0
   11.0055   -0.3380   23.1701 C   0  0  0  0  0  0  0  0  0  0  0  0
    9.8655   -4.2501   24.5536 N   0  0  0  0  0  0  0  0  0  0  0  0
   10.5838   -4.7854   25.7245 C   0  0  0  0  0  0  0  0  0  0  0  0
    9.6887   -4.6921   26.9611 C   0  0  0  0  0  0  0  0  0  0  0  0
    8.3458   -5.3803   26.7065 C   0  0  0  0  0  0  0  0  0  0  0  0
    7.6865   -4.9872   25.3778 C   0  0  0  0  0  0  0  0  0  0  0  0
    8.7075   -5.1300   24.2420 C   0  0  1  0  0  0  0  0  0  0  0  0
    8.1173   -5.0661   22.8186 C   0  0  0  0  0  0  0  0  0  0  0  0
    6.9214   -5.9925   22.6468 C   0  0  0  0  0  0  0  0  0  0  0  0
    5.7020   -5.4353   22.2588 C   0  0  0  0  0  0  0  0  0  0  0  0
    4.5640   -6.2182   22.0876 C   0  0  0  0  0  0  0  0  0  0  0  0
    4.6245   -7.5881   22.3100 C   0  0  0  0  0  0  0  0  0  0  0  0
    5.8327   -8.1631   22.6968 C   0  0  0  0  0  0  0  0  0  0  0  0
    6.9687   -7.3728   22.8810 C   0  0  0  0  0  0  0  0  0  0  0  0
    8.1093   -2.1840   23.4512 H   0  0  0  0  0  0  0  0  0  0  0  0
    9.4994   -2.6518   22.4535 H   0  0  0  0  0  0  0  0  0  0  0  0
    7.7667    0.0217   24.1217 H   0  0  0  0  0  0  0  0  0  0  0  0
   10.7222    2.8676   24.3042 H   0  0  0  0  0  0  0  0  0  0  0  0
   13.0971    2.2957   23.8213 H   0  0  0  0  0  0  0  0  0  0  0  0
   14.7549    0.7215   22.8882 H   0  0  0  0  0  0  0  0  0  0  0  0
   14.0221   -1.4976   22.0679 H   0  0  0  0  0  0  0  0  0  0  0  0
   11.6872   -2.2017   22.2741 H   0  0  0  0  0  0  0  0  0  0  0  0
   10.8719   -5.8295   25.5177 H   0  0  0  0  0  0  0  0  0  0  0  0
   11.5012   -4.2135   25.8836 H   0  0  0  0  0  0  0  0  0  0  0  0
    9.5406   -3.6347   27.2054 H   0  0  0  0  0  0  0  0  0  0  0  0
   10.1877   -5.1462   27.8235 H   0  0  0  0  0  0  0  0  0  0  0  0
    7.6683   -5.1991   27.5487 H   0  0  0  0  0  0  0  0  0  0  0  0
    8.5150   -6.4660   26.6741 H   0  0  0  0  0  0  0  0  0  0  0  0
    6.8351   -5.6504   25.1921 H   0  0  0  0  0  0  0  0  0  0  0  0
    7.3017   -3.9586   25.3964 H   0  0  0  0  0  0  0  0  0  0  0  0
    9.1085   -6.1462   24.3181 H   0  0  0  0  0  0  0  0  0  0  0  0
    7.7777   -4.0616   22.5600 H   0  0  0  0  0  0  0  0  0  0  0  0
    8.9028   -5.3383   22.0994 H   0  0  0  0  0  0  0  0  0  0  0  0
    5.6436   -4.3621   22.0909 H   0  0  0  0  0  0  0  0  0  0  0  0
    3.6198   -5.7543   21.8211 H   0  0  0  0  0  0  0  0  0  0  0  0
    3.7359   -8.2068   22.1943 H   0  0  0  0  0  0  0  0  0  0  0  0
    5.8782   -9.2333   22.8842 H   0  0  0  0  0  0  0  0  0  0  0  0
    7.8988   -7.8359   23.2126 H   0  0  0  0  0  0  0  0  0  0  0  0
  1  2  2  0
  2  3  1  0
  3  4  1  0
  4  5  2  0
  5  6  1  0
  6  7  2  0
  7  8  1  0
  8  9  2  0
  9 10  1  0
 10 11  2  0
 11 12  1  0
 12 13  2  0
  2 14  1  0
 14 15  1  0
 15 16  1  0
 16 17  1  0
 17 18  1  0
 18 19  1  0
 19 20  1  0
 20 21  1  0
 21 22  2  0
 22 23  1  0
 23 24  2  0
 24 25  1  0
 25 26  2  0
 13  4  1  0
 19 14  1  0
 26 21  1  0
 13  8  1  0
  3 27  1  0
  3 28  1  0
  5 29  1  0
  7 30  1  0
  9 31  1  0
 10 32  1  0
 11 33  1  0
 12 34  1  0
 15 35  1  0
 15 36  1  0
 16 37  1  0
 16 38  1  0
 17 39  1  0
 17 40  1  0
 18 41  1  0
 18 42  1  0
 19 43  1  1
 20 44  1  0
 20 45  1  0
 22 46  1  0
 23 47  1  0
 24 48  1  0
 25 49  1  0
 26 50  1  0
M  END
$$$$
