
     RDKit          3D

 50 53  0  0  0  0  0  0  0  0999 V2000
  -10.4542   -3.7024  -25.2039 O   0  0  0  0  0  0  0  0  0  0  0  0
   -9.6107   -4.2368  -24.4913 C   0  0  0  0  0  0  0  0  0  0  0  0
   -8.7680   -3.3560  -23.5574 C   0  0  0  0  0  0  0  0  0  0  0  0
   -9.2018   -1.8908  -23.5949 C   0  0  0  0  0  0  0  0  0  0  0  0
   -8.3075   -0.8696  -23.9769 C   0  0  0  0  0  0  0  0  0  0  0  0
   -8.6769    0.4089  -24.1458 N   0  0  0  0  0  0  0  0  0  0  0  0
   -9.9767    0.7130  -23.9757 C   0  0  0  0  0  0  0  0  0  0  0  0
  -10.9399   -0.2260  -23.6104 C   0  0  0  0  0  0  0  0  0  0  0  0
  -12.2844    0.1402  -23.4928 C   0  0  0  0  0  0  0  0  0  0  0  0
  -13.2445   -0.8132  -23.1413 C   0  0  0  0  0  0  0  0  0  0  0  0
  -12.8589   -2.1300  -22.8662 C   0  0  0  0  0  0  0  0  0  0  0  0
  -11.5068   -2.4948  -22.9886 C   0  0  0  0  0  0  0  0  0  0  0  0
  -10.5454   -1.5503  -23.3789 C   0  0  0  0  0  0  0  0  0  0  0  0
   -9.4477   -5.6222  -24.5971 N   0  0  0  0  0  0  0  0  0  0  0  0
  -10.0433   -6.2358  -25.7868 C   0  0  0  0  0  0  0  0  0  0  0  0
   -9.1001   -5.8651  -26.9388 C   0  0  0  0  0  0  0  0  0  0  0  0
   -7.7020   -6.4459  -26.6673 C   0  0  0  0  0  0  0  0  0  0  0  0
   -7.1741   -6.0242  -25.2845 C   0  0  0  0  0  0  0  0  0  0  0  0
   -8.2114   -6.2910  -24.1896 C   0  0  1  0  0  0  0  0  0  0  0  0
   -7.6160   -5.8855  -22.8342 C   0  0  0  0  0  0  0  0  0  0  0  0
   -6.4044   -6.7619  -22.5594 C   0  0  0  0  0  0  0  0  0  0  0  0
   -6.4694   -8.1560  -22.7336 C   0  0  0  0  0  0  0  0  0  0  0  0
   -5.3303   -8.9537  -22.5573 C   0  0  0  0  0  0  0  0  0  0  0  0
   -4.1094   -8.3626  -22.2225 C   0  0  0  0  0  0  0  0  0  0  0  0
   -4.0322   -6.9785  -22.0516 C   0  0  0  0  0  0  0  0  0  0  0  0
   -5.1742   -6.1835  -22.2122 C   0  0  0  0  0  0  0  0  0  0  0  0
   -7.7192   -3.4390  -23.8510 H   0  0  0  0  0  0  0  0  0  0  0  0
   -8.8699   -3.7510  -22.5464 H   0  0  0  0  0  0  0  0  0  0  0  0
   -7.2686   -1.1134  -24.1709 H   0  0  0  0  0  0  0  0  0  0  0  0
  -10.3245    1.7297  -24.1209 H   0  0  0  0  0  0  0  0  0  0  0  0
  -12.5623    1.1702  -23.6936 H   0  0  0  0  0  0  0  0  0  0  0  0
  -14.2842   -0.5018  -23.0787 H   0  0  0  0  0  0  0  0  0  0  0  0
  -13.6044   -2.8588  -22.5592 H   0  0  0  0  0  0  0  0  0  0  0  0
  -11.1981   -3.5154  -22.7924 H   0  0  0  0  0  0  0  0  0  0  0  0
  -11.0540   -5.8500  -25.9738 H   0  0  0  0  0  0  0  0  0  0  0  0
  -10.1207   -7.3254  -25.6780 H   0  0  0  0  0  0  0  0  0  0  0  0
   -9.0343   -4.7728  -27.0246 H   0  0  0  0  0  0  0  0  0  0  0  0
   -9.4883   -6.2483  -27.8853 H   0  0  0  0  0  0  0  0  0  0  0  0
   -6.9985   -6.1202  -27.4392 H   0  0  0  0  0  0  0  0  0  0  0  0
   -7.7672   -7.5381  -26.7075 H   0  0  0  0  0  0  0  0  0  0  0  0
   -6.9173   -4.9604  -25.2859 H   0  0  0  0  0  0  0  0  0  0  0  0
   -6.2630   -6.5847  -25.0525 H   0  0  0  0  0  0  0  0  0  0  0  0
   -8.4181   -7.3678  -24.1485 H   0  0  0  0  0  0  0  0  0  0  0  0
   -7.2972   -4.8418  -22.8727 H   0  0  0  0  0  0  0  0  0  0  0  0
   -8.3631   -5.9886  -22.0404 H   0  0  0  0  0  0  0  0  0  0  0  0
   -7.4065   -8.6174  -23.0308 H   0  0  0  0  0  0  0  0  0  0  0  0
   -5.3827  -10.0305  -22.6899 H   0  0  0  0  0  0  0  0  0  0  0  0
   -3.2222   -8.9756  -22.1015 H   0  0  0  0  0  0  0  0  0  0  0  0
   -3.0781   -6.5240  -21.8124 H   0  0  0  0  0  0  0  0  0  0  0  0
   -5.0973   -5.1083  -22.0900 H   0  0  0  0  0  0  0  0  0  0  0  0
  1  2  2  0
  2  3  1  0
  3  4  1  0
  4  5  2  0
  5  6  1  0
  6  7  2  0
  7  8  1  0
  8  9  2  0
  9 10  1  0
 10 11  2  0
 11 12  1  0
 12 13  2  0
  2 14  1  0
 14 15  1  0
 15 16  1  0
 16 17  1  0
 17 18  1  0
 18 19  1  0
 19 20  1  0
 20 21  1  0
 21 22  2  0
 22 23  1  0
 23 24  2  0
 24 25  1  0
 25 26  2  0
 13  4  1  0
 19 14  1  0
 26 21  1  0
 13  8  1  0
  3 27  1  0
  3 28  1  0
  5 29  1  0
  7 30  1  0
  9 31  1  0
 10 32  1  0
 11 33  1  0
 12 34  1  0
 15 35  1  0
 15 36  1  0
 16 37  1  0
 16 38  1  0
 17 39  1  0
 17 40  1  0
 18 41  1  0
 18 42  1  0
 19 43  1  1
 20 44  1  0
 20 45  1  0
 22 46  1  0
 23 47  1  0
 24 48  1  0
 25 49  1  0
 26 50  1  0
M  END
