
     RDKit          3D

 69 74  0  0  0  0  0  0  0  0999 V2000
    6.6044    4.1383   27.3027 C   0  0  0  0  0  0  0  0  0  0  0  0
    6.7093    3.5736   25.9568 N   0  0  0  0  0  0  0  0  0  0  0  0
    6.7983    4.5621   24.8432 C   0  0  0  0  0  0  0  0  0  0  0  0
    6.8385    3.8290   23.5012 C   0  0  0  0  0  0  0  0  0  0  0  0
    7.9775    2.9252   23.3344 N   0  0  0  0  0  0  0  0  0  0  0  0
    7.8473    1.4901   23.5315 C   0  0  0  0  0  0  0  0  0  0  0  0
    8.5301    0.6779   22.3930 C   0  0  2  0  0  0  0  0  0  0  0  0
    7.7365    0.9643   21.0933 C   0  0  0  0  0  0  0  0  0  0  0  0
    7.7393    1.9757   20.4274 O   0  0  0  0  0  0  0  0  0  0  0  0
    6.9380   -0.1302   20.8160 N   0  0  0  0  0  0  0  0  0  0  0  0
    5.9170   -0.0700   19.8386 C   0  0  0  0  0  0  0  0  0  0  0  0
    6.0645   -0.7476   18.6562 C   0  0  0  0  0  0  0  0  0  0  0  0
    5.2208   -0.6434   17.6040 N   0  0  0  0  0  0  0  0  0  0  0  0
    4.1709    0.1307   17.7494 C   0  0  0  0  0  0  0  0  0  0  0  0
    3.8482    0.8176   18.9539 C   0  0  0  0  0  0  0  0  0  0  0  0
    2.6750    1.6078   19.0796 C   0  0  0  0  0  0  0  0  0  0  0  0
    2.3383    2.1669   20.2808 C   0  0  0  0  0  0  0  0  0  0  0  0
    3.1674    1.9794   21.4081 C   0  0  0  0  0  0  0  0  0  0  0  0
    4.3334    1.2625   21.3007 C   0  0  0  0  0  0  0  0  0  0  0  0
    4.7172    0.6833   20.0566 C   0  0  0  0  0  0  0  0  0  0  0  0
    7.1003   -1.2438   21.7280 C   0  0  0  0  0  0  0  0  0  0  0  0
    8.3595   -0.8565   22.5170 C   0  0  2  0  0  0  0  0  0  0  0  0
    8.4001   -1.4234   23.9238 C   0  0  0  0  0  0  0  0  0  0  0  0
    9.5873   -0.9672   24.5491 O   0  0  0  0  0  0  0  0  0  0  0  0
    9.8730   -1.6186   25.7642 C   0  0  0  0  0  0  0  0  0  0  0  0
   10.7640   -2.8111   25.5544 C   0  0  0  0  0  0  0  0  0  0  0  0
   10.1220   -3.8166   24.8561 F   0  0  0  0  0  0  0  0  0  0  0  0
   11.7190   -3.2516   26.5985 C   0  0  0  0  0  0  0  0  0  0  0  0
   12.2216   -2.6781   25.2894 C   0  0  0  0  0  0  0  0  0  0  0  0
    9.9820    1.1399   22.3692 C   0  0  0  0  0  0  0  0  0  0  0  0
   11.0833    0.2795   22.2097 C   0  0  0  0  0  0  0  0  0  0  0  0
   12.3636    0.7980   22.1604 C   0  0  0  0  0  0  0  0  0  0  0  0
   13.7209   -0.2816   21.9603 Cl  0  0  0  0  0  0  0  0  0  0  0  0
   12.6083    2.1680   22.2422 C   0  0  0  0  0  0  0  0  0  0  0  0
   11.5340    3.0169   22.3857 C   0  0  0  0  0  0  0  0  0  0  0  0
   10.2416    2.5150   22.5158 C   0  0  0  0  0  0  0  0  0  0  0  0
    9.1600    3.4796   22.9303 C   0  0  0  0  0  0  0  0  0  0  0  0
    9.3337    4.6954   22.9212 O   0  0  0  0  0  0  0  0  0  0  0  0
    5.7297    4.7901   27.3889 H   0  0  0  0  0  0  0  0  0  0  0  0
    6.5151    3.3377   28.0354 H   0  0  0  0  0  0  0  0  0  0  0  0
    7.4847    4.7394   27.5378 H   0  0  0  0  0  0  0  0  0  0  0  0
    5.8764    2.9662   25.7918 H   0  0  0  0  0  0  0  0  0  0  0  0
    7.5728    2.9932   25.8890 H   0  0  0  0  0  0  0  0  0  0  0  0
    5.9303    5.2246   24.8726 H   0  0  0  0  0  0  0  0  0  0  0  0
    7.6920    5.1767   24.9651 H   0  0  0  0  0  0  0  0  0  0  0  0
    6.8854    4.5666   22.6938 H   0  0  0  0  0  0  0  0  0  0  0  0
    5.9130    3.2464   23.3790 H   0  0  0  0  0  0  0  0  0  0  0  0
    6.7890    1.2276   23.6059 H   0  0  0  0  0  0  0  0  0  0  0  0
    8.3240    1.1968   24.4703 H   0  0  0  0  0  0  0  0  0  0  0  0
    6.9239   -1.4028   18.5154 H   0  0  0  0  0  0  0  0  0  0  0  0
    3.4964    0.2168   16.8968 H   0  0  0  0  0  0  0  0  0  0  0  0
    2.0606    1.7658   18.2006 H   0  0  0  0  0  0  0  0  0  0  0  0
    1.4298    2.7560   20.3745 H   0  0  0  0  0  0  0  0  0  0  0  0
    2.8841    2.4156   22.3617 H   0  0  0  0  0  0  0  0  0  0  0  0
    4.9655    1.1282   22.1740 H   0  0  0  0  0  0  0  0  0  0  0  0
    6.2160   -1.3742   22.3704 H   0  0  0  0  0  0  0  0  0  0  0  0
    7.2474   -2.1815   21.1796 H   0  0  0  0  0  0  0  0  0  0  0  0
    9.2021   -1.2692   21.9587 H   0  0  0  0  0  0  0  0  0  0  0  0
    7.5246   -1.0850   24.5011 H   0  0  0  0  0  0  0  0  0  0  0  0
    8.3711   -2.5198   23.9023 H   0  0  0  0  0  0  0  0  0  0  0  0
    8.9480   -1.9356   26.2702 H   0  0  0  0  0  0  0  0  0  0  0  0
   10.3894   -0.8980   26.4091 H   0  0  0  0  0  0  0  0  0  0  0  0
   11.8166   -2.6500   27.4924 H   0  0  0  0  0  0  0  0  0  0  0  0
   11.8158   -4.3224   26.7472 H   0  0  0  0  0  0  0  0  0  0  0  0
   12.6427   -3.3849   24.5848 H   0  0  0  0  0  0  0  0  0  0  0  0
   12.6723   -1.6886   25.2763 H   0  0  0  0  0  0  0  0  0  0  0  0
   10.9947   -0.8022   22.1963 H   0  0  0  0  0  0  0  0  0  0  0  0
   13.6188    2.5614   22.2055 H   0  0  0  0  0  0  0  0  0  0  0  0
   11.6873    4.0870   22.4400 H   0  0  0  0  0  0  0  0  0  0  0  0
  1  2  1  0
  2  3  1  0
  3  4  1  0
  4  5  1  0
  5  6  1  0
  7  6  1  1
  7  8  1  0
  8  9  2  0
  8 10  1  0
 10 11  1  0
 11 12  2  0
 12 13  1  0
 13 14  2  0
 14 15  1  0
 15 16  2  0
 16 17  1  0
 17 18  2  0
 18 19  1  0
 19 20  2  0
 10 21  1  0
 21 22  1  0
 22 23  1  0
 23 24  1  0
 24 25  1  0
 25 26  1  0
 26 27  1  0
 26 28  1  0
 28 29  1  0
  7 30  1  0
 30 31  2  0
 31 32  1  0
 32 33  1  0
 32 34  2  0
 34 35  1  0
 35 36  2  0
 36 37  1  0
 37 38  2  0
 37  5  1  0
 22  7  1  0
 29 26  1  0
 36 30  1  0
 20 11  1  0
 20 15  1  0
  1 39  1  0
  1 40  1  0
  1 41  1  0
  2 42  1  0
  2 43  1  0
  3 44  1  0
  3 45  1  0
  4 46  1  0
  4 47  1  0
  6 48  1  0
  6 49  1  0
 12 50  1  0
 14 51  1  0
 16 52  1  0
 17 53  1  0
 18 54  1  0
 19 55  1  0
 21 56  1  0
 21 57  1  0
 22 58  1  6
 23 59  1  0
 23 60  1  0
 25 61  1  0
 25 62  1  0
 28 63  1  0
 28 64  1  0
 29 65  1  0
 29 66  1  0
 31 67  1  0
 34 68  1  0
 35 69  1  0
M  CHG  1   2   1
M  END
$$$$
