
     RDKit          3D

 37 39  0  0  0  0  0  0  0  0999 V2000
    5.7521   -0.1208   23.5709 O   0  0  0  0  0  0  0  0  0  0  0  0
    6.3166   -0.7281   22.6705 C   0  0  0  0  0  0  0  0  0  0  0  0
    6.7004    0.0553   21.3963 C   0  0  0  0  0  0  0  0  0  0  0  0
    5.7715    0.0306   20.1933 C   0  0  0  0  0  0  0  0  0  0  0  0
    6.1144   -0.5804   19.0091 C   0  0  0  0  0  0  0  0  0  0  0  0
    5.4184   -0.4933   17.8456 N   0  0  0  0  0  0  0  0  0  0  0  0
    4.3230    0.2260   17.8491 C   0  0  0  0  0  0  0  0  0  0  0  0
    3.8338    0.9128   18.9959 C   0  0  0  0  0  0  0  0  0  0  0  0
    2.6631    1.7126   18.9556 C   0  0  0  0  0  0  0  0  0  0  0  0
    2.2130    2.3401   20.0861 C   0  0  0  0  0  0  0  0  0  0  0  0
    2.9206    2.1951   21.3024 C   0  0  0  0  0  0  0  0  0  0  0  0
    4.0622    1.4390   21.3696 C   0  0  0  0  0  0  0  0  0  0  0  0
    4.5567    0.7885   20.2057 C   0  0  0  0  0  0  0  0  0  0  0  0
    6.6612   -2.0386   22.8173 N   0  0  0  0  0  0  0  0  0  0  0  0
    6.5566   -2.6447   24.1473 C   0  0  0  0  0  0  0  0  0  0  0  0
    7.9382   -3.0189   24.6829 C   0  0  0  0  0  0  0  0  0  0  0  0
    8.6958   -3.9084   23.6947 C   0  0  0  0  0  0  0  0  0  0  0  0
    8.7175   -3.2904   22.2906 C   0  0  0  0  0  0  0  0  0  0  0  0
    7.3220   -2.8793   21.8274 C   0  0  0  0  0  0  0  0  0  0  0  0
    6.7898    1.0896   21.7563 H   0  0  0  0  0  0  0  0  0  0  0  0
    7.7132   -0.2329   21.0978 H   0  0  0  0  0  0  0  0  0  0  0  0
    7.0169   -1.1873   18.9457 H   0  0  0  0  0  0  0  0  0  0  0  0
    3.7587    0.2878   16.9159 H   0  0  0  0  0  0  0  0  0  0  0  0
    2.1394    1.8340   18.0098 H   0  0  0  0  0  0  0  0  0  0  0  0
    1.3097    2.9436   20.0610 H   0  0  0  0  0  0  0  0  0  0  0  0
    2.5587    2.6999   22.1930 H   0  0  0  0  0  0  0  0  0  0  0  0
    4.5977    1.3317   22.3130 H   0  0  0  0  0  0  0  0  0  0  0  0
    5.9146   -3.5369   24.0947 H   0  0  0  0  0  0  0  0  0  0  0  0
    6.0664   -1.9017   24.7820 H   0  0  0  0  0  0  0  0  0  0  0  0
    8.5128   -2.0972   24.8449 H   0  0  0  0  0  0  0  0  0  0  0  0
    7.8380   -3.5249   25.6538 H   0  0  0  0  0  0  0  0  0  0  0  0
    8.2208   -4.9002   23.6488 H   0  0  0  0  0  0  0  0  0  0  0  0
    9.7224   -4.0393   24.0639 H   0  0  0  0  0  0  0  0  0  0  0  0
    9.3674   -2.4091   22.2901 H   0  0  0  0  0  0  0  0  0  0  0  0
    9.1138   -3.9909   21.5519 H   0  0  0  0  0  0  0  0  0  0  0  0
    6.7204   -3.7874   21.6959 H   0  0  0  0  0  0  0  0  0  0  0  0
    7.3412   -2.3673   20.8613 H   0  0  0  0  0  0  0  0  0  0  0  0
  1  2  2  0
  2  3  1  0
  3  4  1  0
  4  5  2  0
  5  6  1  0
  6  7  2  0
  7  8  1  0
  8  9  2  0
  9 10  1  0
 10 11  2  0
 11 12  1  0
 12 13  2  0
  2 14  1  0
 14 15  1  0
 15 16  1  0
 16 17  1  0
 17 18  1  0
 18 19  1  0
 13  4  1  0
 19 14  1  0
 13  8  1  0
  3 20  1  0
  3 21  1  0
  5 22  1  0
  7 23  1  0
  9 24  1  0
 10 25  1  0
 11 26  1  0
 12 27  1  0
 15 28  1  0
 15 29  1  0
 16 30  1  0
 16 31  1  0
 17 32  1  0
 17 33  1  0
 18 34  1  0
 18 35  1  0
 19 36  1  0
 19 37  1  0
M  END
$$$$
