mobile
  PyMOL3.1          3D                             0

 43 47  0  0  0  0  0  0  0  0999 V2000
   10.1880   -1.7750   23.6387 C   0  0  0  0  0  0  0  0  0  0  0  0
    6.2584   -1.1996   18.8432 C   0  0  0  0  0  0  0  0  0  0  0  0
   11.0839   -2.4853   24.6177 C   0  0  0  0  0  0  0  0  0  0  0  0
   12.4245   -2.1537   24.7362 C   0  0  0  0  0  0  0  0  0  0  0  0
    8.7847   -1.3032   24.0747 C   0  0  0  0  0  0  0  0  0  0  0  0
   13.2510   -2.8251   25.6309 C   0  0  0  0  0  0  0  0  0  0  0  0
   12.7519   -3.8440   26.4096 C   0  0  0  0  0  0  0  0  0  0  0  0
   11.4284   -4.1965   26.2896 C   0  0  0  0  0  0  0  0  0  0  0  0
   10.5997   -3.5221   25.3999 C   0  0  0  0  0  0  0  0  0  0  0  0
    7.6637   -1.0811   21.7359 C   0  0  0  0  0  0  0  0  0  0  0  0
    5.7659   -0.9608   20.1219 C   0  0  0  0  0  0  0  0  0  0  0  0
    6.9911   -2.8219   22.9860 N   0  0  0  0  0  0  0  0  0  0  0  0
    6.4273   -1.5154   21.2715 N   0  0  0  0  0  0  0  0  0  0  0  0
    9.5305   -2.6625   22.5593 C   0  0  0  0  0  0  0  0  0  0  0  0
    5.6883   -0.6818   17.7517 N   0  0  0  0  0  0  0  0  0  0  0  0
    4.9805   -3.2055   21.9191 O   0  0  0  0  0  0  0  0  0  0  0  0
    6.0183   -2.5960   22.0561 C   0  0  0  0  0  0  0  0  0  0  0  0
    8.1682   -1.9852   22.8252 C   0  0  0  0  0  0  0  0  0  0  0  0
    8.2309   -0.0929   21.3117 O   0  0  0  0  0  0  0  0  0  0  0  0
    4.6321    0.0960   17.8941 C   0  0  0  0  0  0  0  0  0  0  0  0
    4.0465    0.4416   19.1309 C   0  0  0  0  0  0  0  0  0  0  0  0
    2.9158    1.2791   19.2510 C   0  0  0  0  0  0  0  0  0  0  0  0
    2.4027    1.5550   20.4830 C   0  0  0  0  0  0  0  0  0  0  0  0
    2.9826    1.0150   21.6429 C   0  0  0  0  0  0  0  0  0  0  0  0
    4.0821    0.2093   21.5569 C   0  0  0  0  0  0  0  0  0  0  0  0
    4.6353   -0.1084   20.2961 C   0  0  0  0  0  0  0  0  0  0  0  0
   10.7276   -0.9447   23.1601 H   0  0  0  0  0  0  0  0  0  0  0  0
    7.1311   -1.8251   18.7290 H   0  0  0  0  0  0  0  0  0  0  0  0
   12.8326   -1.3626   24.1249 H   0  0  0  0  0  0  0  0  0  0  0  0
    8.4456   -1.7280   25.0306 H   0  0  0  0  0  0  0  0  0  0  0  0
    8.6641   -0.2107   24.0947 H   0  0  0  0  0  0  0  0  0  0  0  0
   14.2907   -2.5455   25.7150 H   0  0  0  0  0  0  0  0  0  0  0  0
   13.3924   -4.3615   27.1083 H   0  0  0  0  0  0  0  0  0  0  0  0
   11.0297   -5.0006   26.8912 H   0  0  0  0  0  0  0  0  0  0  0  0
    9.5620   -3.8107   25.3158 H   0  0  0  0  0  0  0  0  0  0  0  0
    6.9018   -3.5022   23.7135 H   0  0  0  0  0  0  0  0  0  0  0  0
    9.9225   -2.4984   21.5445 H   0  0  0  0  0  0  0  0  0  0  0  0
    9.5495   -3.7371   22.7901 H   0  0  0  0  0  0  0  0  0  0  0  0
    4.1828    0.4977   16.9975 H   0  0  0  0  0  0  0  0  0  0  0  0
    2.4590    1.6998   18.3681 H   0  0  0  0  0  0  0  0  0  0  0  0
    1.5380    2.1966   20.5685 H   0  0  0  0  0  0  0  0  0  0  0  0
    2.5558    1.2389   22.6096 H   0  0  0  0  0  0  0  0  0  0  0  0
    4.5292   -0.1875   22.4555 H   0  0  0  0  0  0  0  0  0  0  0  0
  1  3  1  0  0  0  0
  1  5  1  0  0  0  0
  1 14  1  0  0  0  0
  1 27  1  0  0  0  0
  2 11  4  0  0  0  0
  2 15  4  0  0  0  0
  2 28  1  0  0  0  0
  3  4  4  0  0  0  0
  3  9  4  0  0  0  0
  4  6  4  0  0  0  0
  4 29  1  0  0  0  0
  5 18  1  0  0  0  0
  5 30  1  0  0  0  0
  5 31  1  0  0  0  0
  6  7  4  0  0  0  0
  6 32  1  0  0  0  0
  7  8  4  0  0  0  0
  7 33  1  0  0  0  0
  8  9  4  0  0  0  0
  8 34  1  0  0  0  0
  9 35  1  0  0  0  0
 10 13  1  0  0  0  0
 10 18  1  0  0  0  0
 10 19  2  0  0  0  0
 11 13  1  0  0  0  0
 11 26  4  0  0  0  0
 12 17  1  0  0  0  0
 12 18  1  0  0  0  0
 12 36  1  0  0  0  0
 13 17  1  0  0  0  0
 14 18  1  0  0  0  0
 14 37  1  0  0  0  0
 14 38  1  0  0  0  0
 15 20  4  0  0  0  0
 16 17  2  0  0  0  0
 20 21  4  0  0  0  0
 20 39  1  0  0  0  0
 21 22  4  0  0  0  0
 21 26  4  0  0  0  0
 22 23  4  0  0  0  0
 22 40  1  0  0  0  0
 23 24  4  0  0  0  0
 23 41  1  0  0  0  0
 24 25  4  0  0  0  0
 24 42  1  0  0  0  0
 25 26  4  0  0  0  0
 25 43  1  0  0  0  0
M  END
$$$$
