LIG(B-305)
     RDKit          3D

 26 30  0  0  0  0  0  0  0  0999 V2000
  -10.8166   -0.8716  -23.2336 C   0  0  2  0  0  0  0  0  0  0  0  0
   -6.7288   -0.2951  -18.5734 C   0  0  0  0  0  0  0  0  0  0  0  0
  -11.7427   -1.5828  -24.1845 C   0  0  0  0  0  0  0  0  0  0  0  0
  -13.0877   -1.2561  -24.2562 C   0  0  0  0  0  0  0  0  0  0  0  0
   -9.4308   -0.3943  -23.7159 C   0  0  0  0  0  0  0  0  0  0  0  0
  -13.9418   -1.9282  -25.1241 C   0  0  0  0  0  0  0  0  0  0  0  0
  -13.4657   -2.9430  -25.9223 C   0  0  0  0  0  0  0  0  0  0  0  0
  -12.1376   -3.2907  -25.8485 C   0  0  0  0  0  0  0  0  0  0  0  0
  -11.2816   -2.6156  -24.9847 C   0  0  0  0  0  0  0  0  0  0  0  0
   -8.2324   -0.1742  -21.4161 C   0  0  0  0  0  0  0  0  0  0  0  0
   -6.2811   -0.0509  -19.8665 C   0  0  0  0  0  0  0  0  0  0  0  0
   -7.5963   -1.9090  -22.6934 N   0  0  0  0  0  0  0  0  0  0  0  0
   -6.9792   -0.6050  -20.9954 N   0  0  0  0  0  0  0  0  0  0  0  0
  -10.1202   -1.7596  -22.1798 C   0  0  0  0  0  0  0  0  0  0  0  0
   -6.1237    0.2220  -17.5005 N   0  0  0  0  0  0  0  0  0  0  0  0
   -5.5490   -2.2876  -21.6958 O   0  0  0  0  0  0  0  0  0  0  0  0
   -6.5932   -1.6818  -21.7965 C   0  0  0  0  0  0  0  0  0  0  0  0
   -8.7704   -1.0772  -22.4901 C   0  0  2  0  0  0  0  0  0  0  0  0
   -8.7875    0.8107  -20.9699 O   0  0  0  0  0  0  0  0  0  0  0  0
   -5.0759    1.0042  -17.6757 C   0  0  0  0  0  0  0  0  0  0  0  0
   -4.5342    1.3554  -18.9307 C   0  0  0  0  0  0  0  0  0  0  0  0
   -3.4115    2.1967  -19.0869 C   0  0  0  0  0  0  0  0  0  0  0  0
   -2.9408    2.4779  -20.3350 C   0  0  0  0  0  0  0  0  0  0  0  0
   -3.5579    1.9388  -21.4759 C   0  0  0  0  0  0  0  0  0  0  0  0
   -4.6507    1.1286  -21.3547 C   0  0  0  0  0  0  0  0  0  0  0  0
   -5.1604    0.8064  -20.0767 C   0  0  0  0  0  0  0  0  0  0  0  0
  1  3  1  6
  1  5  1  0
  1 14  1  0
  2 11  2  0
  2 15  1  0
  3  4  2  0
  3  9  1  0
  4  6  1  0
 18  5  1  6
  6  7  2  0
  7  8  1  0
  8  9  2  0
 10 13  1  0
 10 18  1  0
 10 19  2  0
 11 13  1  0
 11 26  1  0
 12 17  1  0
 18 12  1  0
 13 17  1  0
 14 18  1  0
 15 20  2  0
 16 17  2  0
 20 21  1  0
 21 22  1  0
 21 26  2  0
 22 23  2  0
 23 24  1  0
 24 25  2  0
 25 26  1  0
M  END
$$$$
