
     RDKit          3D

 72 77  0  0  0  0  0  0  0  0999 V2000
    2.3132    6.5419   20.4383 C   0  0  0  0  0  0  0  0  0  0  0  0
    2.9714    6.0836   21.7234 C   0  0  1  0  0  0  0  0  0  0  0  0
    4.3338    5.4612   21.4677 C   0  0  0  0  0  0  0  0  0  0  0  0
    4.9701    5.0517   22.7564 N   0  0  0  0  0  0  0  0  0  0  0  0
    6.2852    4.4092   22.5107 C   0  0  0  0  0  0  0  0  0  0  0  0
    6.8438    3.7352   23.7646 C   0  0  0  0  0  0  0  0  0  0  0  0
    7.9546    2.8673   23.4040 N   0  0  0  0  0  0  0  0  0  0  0  0
    7.9080    1.4231   23.5608 C   0  0  0  0  0  0  0  0  0  0  0  0
    8.5895    0.6952   22.3643 C   0  0  2  0  0  0  0  0  0  0  0  0
    7.7296    0.9626   21.1032 C   0  0  0  0  0  0  0  0  0  0  0  0
    7.6908    1.9707   20.4327 O   0  0  0  0  0  0  0  0  0  0  0  0
    6.9516   -0.1471   20.8534 N   0  0  0  0  0  0  0  0  0  0  0  0
    5.9181   -0.0976   19.8865 C   0  0  0  0  0  0  0  0  0  0  0  0
    6.0680   -0.7772   18.7058 C   0  0  0  0  0  0  0  0  0  0  0  0
    5.2276   -0.6707   17.6510 N   0  0  0  0  0  0  0  0  0  0  0  0
    4.1781    0.1055   17.7953 C   0  0  0  0  0  0  0  0  0  0  0  0
    3.8541    0.7962   18.9972 C   0  0  0  0  0  0  0  0  0  0  0  0
    2.6720    1.5729   19.1206 C   0  0  0  0  0  0  0  0  0  0  0  0
    2.3473    2.1675   20.3087 C   0  0  0  0  0  0  0  0  0  0  0  0
    3.2068    2.0397   21.4206 C   0  0  0  0  0  0  0  0  0  0  0  0
    4.3788    1.3288   21.3178 C   0  0  0  0  0  0  0  0  0  0  0  0
    4.7380    0.6866   20.0952 C   0  0  0  0  0  0  0  0  0  0  0  0
    7.2027   -1.2667   21.7324 C   0  0  0  0  0  0  0  0  0  0  0  0
    8.4882   -0.8587   22.4903 C   0  0  2  0  0  0  0  0  0  0  0  0
    8.5135   -1.4109   23.9180 C   0  0  0  0  0  0  0  0  0  0  0  0
    9.9927    1.2866   22.2454 C   0  0  0  0  0  0  0  0  0  0  0  0
   11.1350    0.5354   21.9643 C   0  0  0  0  0  0  0  0  0  0  0  0
   12.3646    1.1504   21.8200 C   0  0  0  0  0  0  0  0  0  0  0  0
   13.7526    0.1302   21.5690 Cl  0  0  0  0  0  0  0  0  0  0  0  0
   12.4977    2.5385   21.8565 C   0  0  0  0  0  0  0  0  0  0  0  0
   11.3822    3.3017   22.1376 C   0  0  0  0  0  0  0  0  0  0  0  0
   10.1643    2.6726   22.4038 C   0  0  0  0  0  0  0  0  0  0  0  0
    9.0880    3.5148   23.0003 C   0  0  0  0  0  0  0  0  0  0  0  0
    9.2404    4.7198   23.1399 O   0  0  0  0  0  0  0  0  0  0  0  0
    5.0459    6.2427   23.6782 C   0  0  0  0  0  0  0  0  0  0  0  0
    3.6860    6.9281   23.8345 C   0  0  2  0  0  0  0  0  0  0  0  0
    2.7341    6.1527   24.7404 C   0  0  0  0  0  0  0  0  0  0  0  0
    3.1038    7.2193   22.5704 O   0  0  0  0  0  0  0  0  0  0  0  0
    2.1681    5.6950   19.7565 H   0  0  0  0  0  0  0  0  0  0  0  0
    1.3413    6.9952   20.6483 H   0  0  0  0  0  0  0  0  0  0  0  0
    2.9459    7.2866   19.9426 H   0  0  0  0  0  0  0  0  0  0  0  0
    2.3342    5.3271   22.2097 H   0  0  0  0  0  0  0  0  0  0  0  0
    4.9821    6.1900   20.9652 H   0  0  0  0  0  0  0  0  0  0  0  0
    4.2472    4.5813   20.8214 H   0  0  0  0  0  0  0  0  0  0  0  0
    4.3680    4.3230   23.1851 H   0  0  0  0  0  0  0  0  0  0  0  0
    6.9926    5.1655   22.1525 H   0  0  0  0  0  0  0  0  0  0  0  0
    6.1709    3.6696   21.7108 H   0  0  0  0  0  0  0  0  0  0  0  0
    6.0531    3.1678   24.2751 H   0  0  0  0  0  0  0  0  0  0  0  0
    7.2170    4.4964   24.4571 H   0  0  0  0  0  0  0  0  0  0  0  0
    6.8609    1.1142   23.6368 H   0  0  0  0  0  0  0  0  0  0  0  0
    8.4162    1.1296   24.4900 H   0  0  0  0  0  0  0  0  0  0  0  0
    6.9269   -1.4336   18.5649 H   0  0  0  0  0  0  0  0  0  0  0  0
    3.5047    0.1986   16.9423 H   0  0  0  0  0  0  0  0  0  0  0  0
    2.0412    1.6925   18.2488 H   0  0  0  0  0  0  0  0  0  0  0  0
    1.4298    2.7464   20.3973 H   0  0  0  0  0  0  0  0  0  0  0  0
    2.9494    2.5307   22.3559 H   0  0  0  0  0  0  0  0  0  0  0  0
    5.0298    1.2390   22.1814 H   0  0  0  0  0  0  0  0  0  0  0  0
    6.3622   -1.4409   22.4233 H   0  0  0  0  0  0  0  0  0  0  0  0
    7.3435   -2.1892   21.1573 H   0  0  0  0  0  0  0  0  0  0  0  0
    9.3266   -1.2887   21.9303 H   0  0  0  0  0  0  0  0  0  0  0  0
    9.4092   -1.0956   24.4649 H   0  0  0  0  0  0  0  0  0  0  0  0
    7.6370   -1.0730   24.4863 H   0  0  0  0  0  0  0  0  0  0  0  0
    8.4943   -2.5058   23.9184 H   0  0  0  0  0  0  0  0  0  0  0  0
   11.0893   -0.5388   21.8434 H   0  0  0  0  0  0  0  0  0  0  0  0
   13.4670    2.9864   21.6918 H   0  0  0  0  0  0  0  0  0  0  0  0
   11.4355    4.3886   22.2143 H   0  0  0  0  0  0  0  0  0  0  0  0
    5.7704    6.9503   23.2587 H   0  0  0  0  0  0  0  0  0  0  0  0
    5.4051    5.9190   24.6573 H   0  0  0  0  0  0  0  0  0  0  0  0
    3.8654    7.9114   24.2837 H   0  0  0  0  0  0  0  0  0  0  0  0
    3.1358    6.1078   25.7581 H   0  0  0  0  0  0  0  0  0  0  0  0
    1.7591    6.6474   24.7691 H   0  0  0  0  0  0  0  0  0  0  0  0
    2.5898    5.1215   24.3963 H   0  0  0  0  0  0  0  0  0  0  0  0
  1  2  1  0
  2  3  1  0
  3  4  1  0
  4  5  1  0
  5  6  1  0
  6  7  1  0
  7  8  1  0
  9  8  1  1
  9 10  1  0
 10 11  2  0
 10 12  1  0
 12 13  1  0
 13 14  2  0
 14 15  1  0
 15 16  2  0
 16 17  1  0
 17 18  2  0
 18 19  1  0
 19 20  2  0
 20 21  1  0
 21 22  2  0
 12 23  1  0
 23 24  1  0
 24 25  1  0
  9 26  1  0
 26 27  2  0
 27 28  1  0
 28 29  1  0
 28 30  2  0
 30 31  1  0
 31 32  2  0
 32 33  1  0
 33 34  2  0
  4 35  1  0
 35 36  1  0
 36 37  1  0
 36 38  1  0
 38  2  1  0
 33  7  1  0
 24  9  1  0
 32 26  1  0
 22 13  1  0
 22 17  1  0
  1 39  1  0
  1 40  1  0
  1 41  1  0
  2 42  1  1
  3 43  1  0
  3 44  1  0
  4 45  1  0
  5 46  1  0
  5 47  1  0
  6 48  1  0
  6 49  1  0
  8 50  1  0
  8 51  1  0
 14 52  1  0
 16 53  1  0
 18 54  1  0
 19 55  1  0
 20 56  1  0
 21 57  1  0
 23 58  1  0
 23 59  1  0
 24 60  1  6
 25 61  1  0
 25 62  1  0
 25 63  1  0
 27 64  1  0
 30 65  1  0
 31 66  1  0
 35 67  1  0
 35 68  1  0
 36 69  1  1
 37 70  1  0
 37 71  1  0
 37 72  1  0
M  CHG  1   4   1
M  END
$$$$
