
     RDKit          3D

 59 63  0  0  0  0  0  0  0  0999 V2000
   -7.6595    5.0070  -22.4751 C   0  0  0  0  0  0  0  0  0  0  0  0
   -7.0165    3.6261  -22.4814 C   0  0  0  0  0  0  0  0  0  0  0  0
   -7.7641    2.6446  -23.2552 N   0  0  0  0  0  0  0  0  0  0  0  0
   -7.5031    2.5085  -24.5691 C   0  0  0  0  0  0  0  0  0  0  0  0
   -6.7522    3.2452  -25.1964 O   0  0  0  0  0  0  0  0  0  0  0  0
   -8.1553    1.3490  -25.3256 C   0  0  0  0  0  0  0  0  0  0  0  0
   -8.9868    0.4560  -24.5624 N   0  0  0  0  0  0  0  0  0  0  0  0
   -8.5060   -0.8869  -24.2759 C   0  0  0  0  0  0  0  0  0  0  0  0
   -9.0660   -1.4197  -22.9355 C   0  0  2  0  0  0  0  0  0  0  0  0
   -8.4720   -0.5746  -21.7836 C   0  0  0  0  0  0  0  0  0  0  0  0
   -8.7843    0.5658  -21.5008 O   0  0  0  0  0  0  0  0  0  0  0  0
   -7.5075   -1.3101  -21.1380 N   0  0  0  0  0  0  0  0  0  0  0  0
   -6.6565   -0.7998  -20.1203 C   0  0  0  0  0  0  0  0  0  0  0  0
   -6.8816   -1.1570  -18.8143 C   0  0  0  0  0  0  0  0  0  0  0  0
   -6.1151   -0.7657  -17.7677 N   0  0  0  0  0  0  0  0  0  0  0  0
   -5.0901    0.0127  -18.0104 C   0  0  0  0  0  0  0  0  0  0  0  0
   -4.7532    0.4769  -19.3147 C   0  0  0  0  0  0  0  0  0  0  0  0
   -3.6639    1.3604  -19.5323 C   0  0  0  0  0  0  0  0  0  0  0  0
   -3.3276    1.7614  -20.7922 C   0  0  0  0  0  0  0  0  0  0  0  0
   -4.0683    1.2965  -21.9002 C   0  0  0  0  0  0  0  0  0  0  0  0
   -5.1512    0.4691  -21.7167 C   0  0  0  0  0  0  0  0  0  0  0  0
   -5.5332    0.0404  -20.4143 C   0  0  0  0  0  0  0  0  0  0  0  0
   -7.2229   -2.5626  -21.8062 C   0  0  0  0  0  0  0  0  0  0  0  0
   -8.5294   -2.8251  -22.5616 C   0  0  2  0  0  0  0  0  0  0  0  0
   -8.4228   -3.8212  -23.7079 C   0  0  0  0  0  0  0  0  0  0  0  0
  -10.5757   -1.3000  -23.0418 C   0  0  0  0  0  0  0  0  0  0  0  0
  -11.4698   -2.2576  -22.5528 C   0  0  0  0  0  0  0  0  0  0  0  0
  -12.8246   -1.9821  -22.5043 C   0  0  0  0  0  0  0  0  0  0  0  0
  -13.8666   -3.1246  -21.6965 Cl  0  0  0  0  0  0  0  0  0  0  0  0
  -13.3622   -0.8058  -23.0285 C   0  0  0  0  0  0  0  0  0  0  0  0
  -12.4947    0.1096  -23.5923 C   0  0  0  0  0  0  0  0  0  0  0  0
  -11.1246   -0.1439  -23.6181 C   0  0  0  0  0  0  0  0  0  0  0  0
  -10.2500    0.8782  -24.2575 C   0  0  0  0  0  0  0  0  0  0  0  0
  -10.6413    2.0222  -24.4719 O   0  0  0  0  0  0  0  0  0  0  0  0
   -7.0892    5.7122  -21.8609 H   0  0  0  0  0  0  0  0  0  0  0  0
   -7.6932    5.3949  -23.4962 H   0  0  0  0  0  0  0  0  0  0  0  0
   -8.6795    4.9682  -22.0870 H   0  0  0  0  0  0  0  0  0  0  0  0
   -6.0142    3.7092  -22.9152 H   0  0  0  0  0  0  0  0  0  0  0  0
   -6.9012    3.2078  -21.4802 H   0  0  0  0  0  0  0  0  0  0  0  0
   -8.3109    1.9475  -22.7451 H   0  0  0  0  0  0  0  0  0  0  0  0
   -7.3438    0.7734  -25.7850 H   0  0  0  0  0  0  0  0  0  0  0  0
   -8.7394    1.7873  -26.1385 H   0  0  0  0  0  0  0  0  0  0  0  0
   -7.4118   -0.8599  -24.2305 H   0  0  0  0  0  0  0  0  0  0  0  0
   -8.8024   -1.5702  -25.0819 H   0  0  0  0  0  0  0  0  0  0  0  0
   -7.7500   -1.7623  -18.5579 H   0  0  0  0  0  0  0  0  0  0  0  0
   -4.4872    0.3445  -17.1603 H   0  0  0  0  0  0  0  0  0  0  0  0
   -3.1140    1.7185  -18.6672 H   0  0  0  0  0  0  0  0  0  0  0  0
   -2.4997    2.4492  -20.9491 H   0  0  0  0  0  0  0  0  0  0  0  0
   -3.7911    1.6132  -22.9014 H   0  0  0  0  0  0  0  0  0  0  0  0
   -5.7201    0.1338  -22.5798 H   0  0  0  0  0  0  0  0  0  0  0  0
   -6.3672   -2.4694  -22.4936 H   0  0  0  0  0  0  0  0  0  0  0  0
   -6.9742   -3.3354  -21.0754 H   0  0  0  0  0  0  0  0  0  0  0  0
   -9.2230   -3.2056  -21.8070 H   0  0  0  0  0  0  0  0  0  0  0  0
   -9.3752   -3.9154  -24.2414 H   0  0  0  0  0  0  0  0  0  0  0  0
   -7.6650   -3.5093  -24.4345 H   0  0  0  0  0  0  0  0  0  0  0  0
   -8.1353   -4.8172  -23.3608 H   0  0  0  0  0  0  0  0  0  0  0  0
  -11.1329   -3.2015  -22.1381 H   0  0  0  0  0  0  0  0  0  0  0  0
  -14.4279   -0.6114  -22.9465 H   0  0  0  0  0  0  0  0  0  0  0  0
  -12.8526    1.0529  -23.9944 H   0  0  0  0  0  0  0  0  0  0  0  0
  1  2  1  0
  2  3  1  0
  3  4  1  0
  4  5  2  0
  4  6  1  0
  6  7  1  0
  7  8  1  0
  9  8  1  6
  9 10  1  0
 10 11  2  0
 10 12  1  0
 12 13  1  0
 13 14  2  0
 14 15  1  0
 15 16  2  0
 16 17  1  0
 17 18  2  0
 18 19  1  0
 19 20  2  0
 20 21  1  0
 21 22  2  0
 12 23  1  0
 23 24  1  0
 24 25  1  0
  9 26  1  0
 26 27  2  0
 27 28  1  0
 28 29  1  0
 28 30  2  0
 30 31  1  0
 31 32  2  0
 32 33  1  0
 33 34  2  0
 33  7  1  0
 24  9  1  0
 32 26  1  0
 22 13  1  0
 22 17  1  0
  1 35  1  0
  1 36  1  0
  1 37  1  0
  2 38  1  0
  2 39  1  0
  3 40  1  0
  6 41  1  0
  6 42  1  0
  8 43  1  0
  8 44  1  0
 14 45  1  0
 16 46  1  0
 18 47  1  0
 19 48  1  0
 20 49  1  0
 21 50  1  0
 23 51  1  0
 23 52  1  0
 24 53  1  1
 25 54  1  0
 25 55  1  0
 25 56  1  0
 27 57  1  0
 30 58  1  0
 31 59  1  0
M  END
