
     RDKit          3D

 59 63  0  0  0  0  0  0  0  0999 V2000
    7.8908    6.0458   22.3332 C   0  0  0  0  0  0  0  0  0  0  0  0
    7.2871    4.6479   22.3754 C   0  0  0  0  0  0  0  0  0  0  0  0
    8.0786    3.7002   23.1476 N   0  0  0  0  0  0  0  0  0  0  0  0
    7.8502    3.5783   24.4690 C   0  0  0  0  0  0  0  0  0  0  0  0
    7.0927    4.3040   25.1012 O   0  0  0  0  0  0  0  0  0  0  0  0
    8.5510    2.4498   25.2288 C   0  0  0  0  0  0  0  0  0  0  0  0
    9.3904    1.5678   24.4614 N   0  0  0  0  0  0  0  0  0  0  0  0
    8.9413    0.2077   24.2066 C   0  0  0  0  0  0  0  0  0  0  0  0
    9.4867   -0.3311   22.8626 C   0  0  2  0  0  0  0  0  0  0  0  0
    8.8443    0.4784   21.7111 C   0  0  0  0  0  0  0  0  0  0  0  0
    9.1183    1.6223   21.4037 O   0  0  0  0  0  0  0  0  0  0  0  0
    7.8870   -0.2939   21.0987 N   0  0  0  0  0  0  0  0  0  0  0  0
    7.0000    0.1760   20.0923 C   0  0  0  0  0  0  0  0  0  0  0  0
    7.2066   -0.1960   18.7874 C   0  0  0  0  0  0  0  0  0  0  0  0
    6.4068    0.1569   17.7521 N   0  0  0  0  0  0  0  0  0  0  0  0
    5.3659    0.9104   18.0053 C   0  0  0  0  0  0  0  0  0  0  0  0
    5.0446    1.3863   19.3093 C   0  0  0  0  0  0  0  0  0  0  0  0
    3.9360    2.2427   19.5372 C   0  0  0  0  0  0  0  0  0  0  0  0
    3.6160    2.6546   20.7979 C   0  0  0  0  0  0  0  0  0  0  0  0
    4.3934    2.2285   21.8963 C   0  0  0  0  0  0  0  0  0  0  0  0
    5.4949    1.4285   21.7017 C   0  0  0  0  0  0  0  0  0  0  0  0
    5.8603    0.9894   20.3980 C   0  0  0  0  0  0  0  0  0  0  0  0
    7.6522   -1.5428   21.7925 C   0  0  0  0  0  0  0  0  0  0  0  0
    8.9817   -1.7567   22.5228 C   0  0  2  0  0  0  0  0  0  0  0  0
    8.9281   -2.7367   23.6866 C   0  0  0  0  0  0  0  0  0  0  0  0
   10.9944   -0.1679   22.9335 C   0  0  0  0  0  0  0  0  0  0  0  0
   11.9041   -1.1082   22.4398 C   0  0  0  0  0  0  0  0  0  0  0  0
   13.2493   -0.7962   22.3569 C   0  0  0  0  0  0  0  0  0  0  0  0
   14.3051   -1.9223   21.5441 Cl  0  0  0  0  0  0  0  0  0  0  0  0
   13.7650    0.4029   22.8506 C   0  0  0  0  0  0  0  0  0  0  0  0
   12.8846    1.3030   23.4191 C   0  0  0  0  0  0  0  0  0  0  0  0
   11.5231    1.0121   23.4793 C   0  0  0  0  0  0  0  0  0  0  0  0
   10.6343    2.0199   24.1219 C   0  0  0  0  0  0  0  0  0  0  0  0
   10.9979    3.1776   24.3097 O   0  0  0  0  0  0  0  0  0  0  0  0
    7.2877    6.7249   21.7209 H   0  0  0  0  0  0  0  0  0  0  0  0
    7.9359    6.4511   23.3471 H   0  0  0  0  0  0  0  0  0  0  0  0
    8.9028    6.0290   21.9232 H   0  0  0  0  0  0  0  0  0  0  0  0
    6.2925    4.7103   22.8300 H   0  0  0  0  0  0  0  0  0  0  0  0
    7.1618    4.2104   21.3836 H   0  0  0  0  0  0  0  0  0  0  0  0
    8.6335    3.0103   22.6364 H   0  0  0  0  0  0  0  0  0  0  0  0
    7.7661    1.8594   25.7151 H   0  0  0  0  0  0  0  0  0  0  0  0
    9.1401    2.9172   26.0216 H   0  0  0  0  0  0  0  0  0  0  0  0
    7.8460    0.2036   24.1851 H   0  0  0  0  0  0  0  0  0  0  0  0
    9.2742   -0.4540   25.0164 H   0  0  0  0  0  0  0  0  0  0  0  0
    8.0858   -0.7811   18.5212 H   0  0  0  0  0  0  0  0  0  0  0  0
    4.7356    1.2116   17.1637 H   0  0  0  0  0  0  0  0  0  0  0  0
    3.3575    2.5713   18.6791 H   0  0  0  0  0  0  0  0  0  0  0  0
    2.7728    3.3217   20.9624 H   0  0  0  0  0  0  0  0  0  0  0  0
    4.1293    2.5536   22.8983 H   0  0  0  0  0  0  0  0  0  0  0  0
    6.0916    1.1231   22.5571 H   0  0  0  0  0  0  0  0  0  0  0  0
    6.8094   -1.4622   22.4972 H   0  0  0  0  0  0  0  0  0  0  0  0
    7.4094   -2.3340   21.0796 H   0  0  0  0  0  0  0  0  0  0  0  0
    9.6691   -2.1301   21.7590 H   0  0  0  0  0  0  0  0  0  0  0  0
    9.8941   -2.7958   24.2002 H   0  0  0  0  0  0  0  0  0  0  0  0
    8.1778   -2.4341   24.4249 H   0  0  0  0  0  0  0  0  0  0  0  0
    8.6611   -3.7457   23.3615 H   0  0  0  0  0  0  0  0  0  0  0  0
   11.5849   -2.0677   22.0475 H   0  0  0  0  0  0  0  0  0  0  0  0
   14.8228    0.6254   22.7419 H   0  0  0  0  0  0  0  0  0  0  0  0
   13.2246    2.2623   23.7984 H   0  0  0  0  0  0  0  0  0  0  0  0
  1  2  1  0
  2  3  1  0
  3  4  1  0
  4  5  2  0
  4  6  1  0
  6  7  1  0
  7  8  1  0
  9  8  1  1
  9 10  1  0
 10 11  2  0
 10 12  1  0
 12 13  1  0
 13 14  2  0
 14 15  1  0
 15 16  2  0
 16 17  1  0
 17 18  2  0
 18 19  1  0
 19 20  2  0
 20 21  1  0
 21 22  2  0
 12 23  1  0
 23 24  1  0
 24 25  1  0
  9 26  1  0
 26 27  2  0
 27 28  1  0
 28 29  1  0
 28 30  2  0
 30 31  1  0
 31 32  2  0
 32 33  1  0
 33 34  2  0
 33  7  1  0
 24  9  1  0
 32 26  1  0
 22 13  1  0
 22 17  1  0
  1 35  1  0
  1 36  1  0
  1 37  1  0
  2 38  1  0
  2 39  1  0
  3 40  1  0
  6 41  1  0
  6 42  1  0
  8 43  1  0
  8 44  1  0
 14 45  1  0
 16 46  1  0
 18 47  1  0
 19 48  1  0
 20 49  1  0
 21 50  1  0
 23 51  1  0
 23 52  1  0
 24 53  1  6
 25 54  1  0
 25 55  1  0
 25 56  1  0
 27 57  1  0
 30 58  1  0
 31 59  1  0
M  END
$$$$
