
     RDKit          3D

 65 70  0  0  0  0  0  0  0  0999 V2000
    6.4314    2.9601   24.9851 O   0  0  0  0  0  0  0  0  0  0  0  0
    7.5963    2.9903   24.6158 C   0  0  0  0  0  0  0  0  0  0  0  0
    8.6974    2.1565   25.3009 C   0  0  0  0  0  0  0  0  0  0  0  0
    9.4843    1.3350   24.3362 N   0  0  1  0  0  0  0  0  0  0  0  0
   10.9449    1.3450   24.6087 C   0  0  0  0  0  0  0  0  0  0  0  0
   11.7290    0.4721   23.6692 C   0  0  0  0  0  0  0  0  0  0  0  0
   13.1001    0.6969   23.5851 C   0  0  0  0  0  0  0  0  0  0  0  0
   13.9322   -0.2300   22.9781 C   0  0  0  0  0  0  0  0  0  0  0  0
   13.3539   -1.3660   22.4203 C   0  0  0  0  0  0  0  0  0  0  0  0
   14.3678   -2.5420   21.6281 Cl  0  0  0  0  0  0  0  0  0  0  0  0
   11.9829   -1.5650   22.4298 C   0  0  0  0  0  0  0  0  0  0  0  0
   11.1364   -0.6109   23.0026 C   0  0  0  0  0  0  0  0  0  0  0  0
    9.6123   -0.6930   22.9433 C   0  0  2  0  0  0  0  0  0  0  0  0
    8.9947   -2.0716   22.6281 C   0  0  0  0  0  0  0  0  0  0  0  0
    7.6839   -1.7635   21.8870 C   0  0  0  0  0  0  0  0  0  0  0  0
    7.9857   -0.5056   21.2250 N   0  0  0  0  0  0  0  0  0  0  0  0
    7.1322    0.0189   20.2137 C   0  0  0  0  0  0  0  0  0  0  0  0
    7.3604   -0.3601   18.9158 C   0  0  0  0  0  0  0  0  0  0  0  0
    6.5539   -0.0655   17.8699 N   0  0  0  0  0  0  0  0  0  0  0  0
    5.4814    0.6405   18.1176 C   0  0  0  0  0  0  0  0  0  0  0  0
    5.1371    1.1402   19.4059 C   0  0  0  0  0  0  0  0  0  0  0  0
    3.9869    1.9495   19.6044 C   0  0  0  0  0  0  0  0  0  0  0  0
    3.6405    2.3742   20.8572 C   0  0  0  0  0  0  0  0  0  0  0  0
    4.4279    1.9995   21.9727 C   0  0  0  0  0  0  0  0  0  0  0  0
    5.5614    1.2424   21.8024 C   0  0  0  0  0  0  0  0  0  0  0  0
    5.9652    0.7989   20.5084 C   0  0  0  0  0  0  0  0  0  0  0  0
    8.9888    0.1955   21.8366 C   0  0  0  0  0  0  0  0  0  0  0  0
    9.2407    1.3738   21.6486 O   0  0  0  0  0  0  0  0  0  0  0  0
    9.0401   -0.1064   24.2531 C   0  0  0  0  0  0  0  0  0  0  0  0
    8.0523    3.7681   23.5908 N   0  0  0  0  0  0  0  0  0  0  0  0
    7.1824    4.4957   22.6812 C   0  0  0  0  0  0  0  0  0  0  0  0
    7.0498    5.9792   23.0195 C   0  0  1  0  0  0  0  0  0  0  0  0
    6.1358    6.7725   22.0524 C   0  0  0  0  0  0  0  0  0  0  0  0
    5.2698    7.2017   23.2500 C   0  0  1  0  0  0  0  0  0  0  0  0
    3.9337    6.8611   23.1249 F   0  0  0  0  0  0  0  0  0  0  0  0
    6.0655    6.2735   24.1868 C   0  0  0  0  0  0  0  0  0  0  0  0
    8.2242    1.5237   26.0575 H   0  0  0  0  0  0  0  0  0  0  0  0
    9.3901    2.8350   25.8201 H   0  0  0  0  0  0  0  0  0  0  0  0
    9.3572    1.7204   23.3742 H   0  0  0  0  0  0  0  0  0  0  0  0
   11.3478    2.3664   24.5751 H   0  0  0  0  0  0  0  0  0  0  0  0
   11.1205    0.9739   25.6309 H   0  0  0  0  0  0  0  0  0  0  0  0
   13.5321    1.5939   24.0295 H   0  0  0  0  0  0  0  0  0  0  0  0
   15.0082   -0.1016   22.9600 H   0  0  0  0  0  0  0  0  0  0  0  0
   11.5828   -2.4722   21.9901 H   0  0  0  0  0  0  0  0  0  0  0  0
    8.8291   -2.6681   23.5294 H   0  0  0  0  0  0  0  0  0  0  0  0
    9.6398   -2.6479   21.9610 H   0  0  0  0  0  0  0  0  0  0  0  0
    6.8336   -1.6586   22.5823 H   0  0  0  0  0  0  0  0  0  0  0  0
    7.4134   -2.5077   21.1324 H   0  0  0  0  0  0  0  0  0  0  0  0
    8.2491   -0.9434   18.6896 H   0  0  0  0  0  0  0  0  0  0  0  0
    4.8259    0.8543   17.2716 H   0  0  0  0  0  0  0  0  0  0  0  0
    3.4026    2.2293   18.7298 H   0  0  0  0  0  0  0  0  0  0  0  0
    2.7698    3.0065   21.0044 H   0  0  0  0  0  0  0  0  0  0  0  0
    4.1549    2.3412   22.9708 H   0  0  0  0  0  0  0  0  0  0  0  0
    6.1480    0.9713   22.6766 H   0  0  0  0  0  0  0  0  0  0  0  0
    9.4021   -0.6662   25.1244 H   0  0  0  0  0  0  0  0  0  0  0  0
    7.9475   -0.1516   24.2515 H   0  0  0  0  0  0  0  0  0  0  0  0
    9.0293    3.7053   23.3428 H   0  0  0  0  0  0  0  0  0  0  0  0
    7.5710    4.3650   21.6616 H   0  0  0  0  0  0  0  0  0  0  0  0
    6.1903    4.0272   22.7191 H   0  0  0  0  0  0  0  0  0  0  0  0
    8.0353    6.4470   23.1479 H   0  0  0  0  0  0  0  0  0  0  0  0
    6.6080    7.5650   21.4635 H   0  0  0  0  0  0  0  0  0  0  0  0
    5.5799    6.1248   21.3618 H   0  0  0  0  0  0  0  0  0  0  0  0
    5.3041    8.2704   23.4954 H   0  0  0  0  0  0  0  0  0  0  0  0
    5.4952    5.3839   24.4815 H   0  0  0  0  0  0  0  0  0  0  0  0
    6.4878    6.7226   25.0925 H   0  0  0  0  0  0  0  0  0  0  0  0
  1  2  2  0
  2  3  1  0
  3  4  1  0
  4  5  1  0
  5  6  1  0
  6  7  2  0
  7  8  1  0
  8  9  2  0
  9 10  1  0
  9 11  1  0
 11 12  2  0
 12 13  1  0
 13 14  1  6
 14 15  1  0
 15 16  1  0
 16 17  1  0
 17 18  2  0
 18 19  1  0
 19 20  2  0
 20 21  1  0
 21 22  2  0
 22 23  1  0
 23 24  2  0
 24 25  1  0
 25 26  2  0
 16 27  1  0
 27 28  2  0
 13 29  1  0
  2 30  1  0
 30 31  1  0
 31 32  1  0
 32 33  1  0
 33 34  1  0
 34 35  1  0
 34 36  1  0
 29  4  1  0
 36 32  1  0
 12  6  1  0
 27 13  1  0
 26 17  1  0
 26 21  1  0
  3 37  1  0
  3 38  1  0
  4 39  1  6
  5 40  1  0
  5 41  1  0
  7 42  1  0
  8 43  1  0
 11 44  1  0
 14 45  1  0
 14 46  1  0
 15 47  1  0
 15 48  1  0
 18 49  1  0
 20 50  1  0
 22 51  1  0
 23 52  1  0
 24 53  1  0
 25 54  1  0
 29 55  1  0
 29 56  1  0
 30 57  1  0
 31 58  1  0
 31 59  1  0
 32 60  1  1
 33 61  1  0
 33 62  1  0
 34 63  1  1
 36 64  1  0
 36 65  1  0
M  CHG  1   4   1
M  END
$$$$
