mobile
  PyMOL3.1          3D                             0

 40 43  0  0  0  0  0  0  0  0999 V2000
   -8.2192   -0.2329  -21.3688 O   0  0  0  0  0  0  0  0  0  0  0  0
   -7.6704   -1.3020  -21.6255 C   0  0  0  0  0  0  0  0  0  0  0  0
   -8.0904   -2.1662  -22.8158 C   0  0  0  0  0  0  0  0  0  0  0  0
   -7.1159   -1.8883  -24.0099 C   0  0  0  0  0  0  0  0  0  0  0  0
   -7.7978   -1.3264  -25.2500 C   0  0  0  0  0  0  0  0  0  0  0  0
   -8.8590   -0.3910  -24.8908 N   0  0  0  0  0  0  0  0  0  0  0  0
   -9.5397   -1.8038  -23.0806 C   0  0  0  0  0  0  0  0  0  0  0  0
   -9.8395   -0.8411  -24.0540 C   0  0  0  0  0  0  0  0  0  0  0  0
  -11.1482   -0.3776  -24.1946 C   0  0  0  0  0  0  0  0  0  0  0  0
  -12.1599   -0.8908  -23.4018 C   0  0  0  0  0  0  0  0  0  0  0  0
  -10.5725   -2.3372  -22.3135 C   0  0  0  0  0  0  0  0  0  0  0  0
  -11.8619   -1.8856  -22.4945 C   0  0  0  0  0  0  0  0  0  0  0  0
  -13.1557   -2.6519  -21.6102 Cl  0  0  0  0  0  0  0  0  0  0  0  0
   -6.6236   -1.7863  -20.9216 N   0  0  0  0  0  0  0  0  0  0  0  0
   -5.9057   -1.1309  -19.9054 C   0  0  0  0  0  0  0  0  0  0  0  0
   -4.7766   -0.3418  -20.2804 C   0  0  0  0  0  0  0  0  0  0  0  0
   -4.2730   -0.2623  -21.6038 C   0  0  0  0  0  0  0  0  0  0  0  0
   -3.1813    0.5066  -21.8939 C   0  0  0  0  0  0  0  0  0  0  0  0
   -2.5362    1.2225  -20.8979 C   0  0  0  0  0  0  0  0  0  0  0  0
   -2.9861    1.1854  -19.6109 C   0  0  0  0  0  0  0  0  0  0  0  0
   -4.1184    0.4072  -19.2660 C   0  0  0  0  0  0  0  0  0  0  0  0
   -4.6358    0.3286  -17.9510 C   0  0  0  0  0  0  0  0  0  0  0  0
   -5.6864   -0.4070  -17.6046 N   0  0  0  0  0  0  0  0  0  0  0  0
   -6.2835   -1.1205  -18.5642 C   0  0  0  0  0  0  0  0  0  0  0  0
   -8.0210   -3.2277  -22.5386 H   0  0  0  0  0  0  0  0  0  0  0  0
   -6.3568   -1.1657  -23.6757 H   0  0  0  0  0  0  0  0  0  0  0  0
   -6.6255   -2.8338  -24.2832 H   0  0  0  0  0  0  0  0  0  0  0  0
   -7.0507   -0.8020  -25.8646 H   0  0  0  0  0  0  0  0  0  0  0  0
   -8.2305   -2.1556  -25.8284 H   0  0  0  0  0  0  0  0  0  0  0  0
   -8.5995    0.5709  -24.8028 H   0  0  0  0  0  0  0  0  0  0  0  0
  -11.3728    0.3847  -24.9256 H   0  0  0  0  0  0  0  0  0  0  0  0
  -13.1684   -0.5171  -23.4923 H   0  0  0  0  0  0  0  0  0  0  0  0
  -10.3640   -3.1016  -21.5799 H   0  0  0  0  0  0  0  0  0  0  0  0
   -6.3269   -2.7132  -21.1498 H   0  0  0  0  0  0  0  0  0  0  0  0
   -4.7583   -0.8179  -22.3928 H   0  0  0  0  0  0  0  0  0  0  0  0
   -2.8178    0.5571  -22.9093 H   0  0  0  0  0  0  0  0  0  0  0  0
   -1.6677    1.8158  -21.1437 H   0  0  0  0  0  0  0  0  0  0  0  0
   -2.4740    1.7542  -18.8480 H   0  0  0  0  0  0  0  0  0  0  0  0
   -4.1460    0.9033  -17.1788 H   0  0  0  0  0  0  0  0  0  0  0  0
   -7.1241   -1.7346  -18.2785 H   0  0  0  0  0  0  0  0  0  0  0  0
  1  2  2  0  0  0  0
  2  3  1  0  0  0  0
  2 14  1  0  0  0  0
  3  4  1  0  0  0  0
  3  7  1  0  0  0  0
  3 25  1  0  0  0  0
  4  5  1  0  0  0  0
  4 26  1  0  0  0  0
  4 27  1  0  0  0  0
  5  6  1  0  0  0  0
  5 28  1  0  0  0  0
  5 29  1  0  0  0  0
  6  8  1  0  0  0  0
  6 30  1  0  0  0  0
  7  8  4  0  0  0  0
  7 11  4  0  0  0  0
  8  9  4  0  0  0  0
  9 10  4  0  0  0  0
  9 31  1  0  0  0  0
 10 12  4  0  0  0  0
 10 32  1  0  0  0  0
 11 12  4  0  0  0  0
 11 33  1  0  0  0  0
 12 13  1  0  0  0  0
 14 15  1  0  0  0  0
 14 34  1  0  0  0  0
 15 16  4  0  0  0  0
 15 24  4  0  0  0  0
 16 17  4  0  0  0  0
 16 21  4  0  0  0  0
 17 18  4  0  0  0  0
 17 35  1  0  0  0  0
 18 19  4  0  0  0  0
 18 36  1  0  0  0  0
 19 20  4  0  0  0  0
 19 37  1  0  0  0  0
 20 21  4  0  0  0  0
 20 38  1  0  0  0  0
 21 22  4  0  0  0  0
 22 23  4  0  0  0  0
 22 39  1  0  0  0  0
 23 24  4  0  0  0  0
 24 40  1  0  0  0  0
M  END
$$$$
