
     RDKit          3D

 44 47  0  0  0  0  0  0  0  0999 V2000
    9.4521    0.2290   20.9048 O   0  0  0  0  0  0  0  0  0  0  0  0
    8.5983   -0.2265   21.6447 C   0  0  0  0  0  0  0  0  0  0  0  0
    7.2350    0.4863   21.7030 C   0  0  0  0  0  0  0  0  0  0  0  0
    6.4076    0.5343   20.4132 C   0  0  0  0  0  0  0  0  0  0  0  0
    6.9266    0.1701   19.1543 C   0  0  0  0  0  0  0  0  0  0  0  0
    6.2251    0.2487   18.0110 N   0  0  0  0  0  0  0  0  0  0  0  0
    4.9656    0.7149   18.0623 C   0  0  0  0  0  0  0  0  0  0  0  0
    4.3454    1.0826   19.2593 C   0  0  0  0  0  0  0  0  0  0  0  0
    3.0176    1.5406   19.2831 C   0  0  0  0  0  0  0  0  0  0  0  0
    2.4178    1.8975   20.4982 C   0  0  0  0  0  0  0  0  0  0  0  0
    3.1507    1.8279   21.6887 C   0  0  0  0  0  0  0  0  0  0  0  0
    4.4791    1.3876   21.6572 C   0  0  0  0  0  0  0  0  0  0  0  0
    5.0815    0.9958   20.4557 C   0  0  0  0  0  0  0  0  0  0  0  0
    8.9358   -1.3038   22.4605 N   0  0  0  0  0  0  0  0  0  0  0  0
    8.1592   -1.5593   23.6657 C   0  0  0  0  0  0  0  0  0  0  0  0
    8.7559   -0.6464   24.7374 C   0  0  0  0  0  0  0  0  0  0  0  0
   10.1929   -1.1280   24.9874 C   0  0  0  0  0  0  0  0  0  0  0  0
   10.8231   -0.5742   26.2601 C   0  0  0  0  0  0  0  0  0  0  0  0
   11.0871   -2.0059   26.7204 C   0  0  0  0  0  0  0  0  0  0  0  0
   10.3051   -2.5527   25.5344 C   0  0  0  0  0  0  0  0  0  0  0  0
   11.0266   -0.9779   23.6992 C   0  0  0  0  0  0  0  0  0  0  0  0
   10.3400   -1.7375   22.5441 C   0  0  0  0  0  0  0  0  0  0  0  0
    6.6436   -0.0089   22.4745 H   0  0  0  0  0  0  0  0  0  0  0  0
    7.4123    1.5188   22.0266 H   0  0  0  0  0  0  0  0  0  0  0  0
    7.9588   -0.1618   19.1009 H   0  0  0  0  0  0  0  0  0  0  0  0
    4.4114    0.8124   17.1334 H   0  0  0  0  0  0  0  0  0  0  0  0
    2.4498    1.6170   18.3600 H   0  0  0  0  0  0  0  0  0  0  0  0
    1.3884    2.2401   20.5198 H   0  0  0  0  0  0  0  0  0  0  0  0
    2.6987    2.1251   22.6331 H   0  0  0  0  0  0  0  0  0  0  0  0
    5.0580    1.3538   22.5732 H   0  0  0  0  0  0  0  0  0  0  0  0
    7.0896   -1.3695   23.5237 H   0  0  0  0  0  0  0  0  0  0  0  0
    8.2774   -2.6100   23.9598 H   0  0  0  0  0  0  0  0  0  0  0  0
    8.1593   -0.6902   25.6546 H   0  0  0  0  0  0  0  0  0  0  0  0
    8.7762    0.3905   24.3713 H   0  0  0  0  0  0  0  0  0  0  0  0
   11.7064    0.0455   26.0895 H   0  0  0  0  0  0  0  0  0  0  0  0
   10.1211   -0.0423   26.9123 H   0  0  0  0  0  0  0  0  0  0  0  0
   10.6669   -2.2601   27.6957 H   0  0  0  0  0  0  0  0  0  0  0  0
   12.1480   -2.2680   26.6998 H   0  0  0  0  0  0  0  0  0  0  0  0
    9.3453   -3.0084   25.8101 H   0  0  0  0  0  0  0  0  0  0  0  0
   10.8801   -3.2445   24.9078 H   0  0  0  0  0  0  0  0  0  0  0  0
   12.0386   -1.3725   23.8548 H   0  0  0  0  0  0  0  0  0  0  0  0
   11.1021    0.0858   23.4472 H   0  0  0  0  0  0  0  0  0  0  0  0
   10.3726   -2.8178   22.7242 H   0  0  0  0  0  0  0  0  0  0  0  0
   10.8780   -1.5579   21.6071 H   0  0  0  0  0  0  0  0  0  0  0  0
  1  2  2  0
  2  3  1  0
  3  4  1  0
  4  5  2  0
  5  6  1  0
  6  7  2  0
  7  8  1  0
  8  9  2  0
  9 10  1  0
 10 11  2  0
 11 12  1  0
 12 13  2  0
  2 14  1  0
 14 15  1  0
 15 16  1  0
 16 17  1  0
 17 18  1  0
 18 19  1  0
 19 20  1  0
 17 21  1  0
 21 22  1  0
 13  4  1  0
 22 14  1  0
 13  8  1  0
 20 17  1  0
  3 23  1  0
  3 24  1  0
  5 25  1  0
  7 26  1  0
  9 27  1  0
 10 28  1  0
 11 29  1  0
 12 30  1  0
 15 31  1  0
 15 32  1  0
 16 33  1  0
 16 34  1  0
 18 35  1  0
 18 36  1  0
 19 37  1  0
 19 38  1  0
 20 39  1  0
 20 40  1  0
 21 41  1  0
 21 42  1  0
 22 43  1  0
 22 44  1  0
M  END
$$$$
