
     RDKit          3D

 57 60  0  0  0  0  0  0  0  0999 V2000
    8.3077   -7.2300   25.5084 C   0  0  0  0  0  0  0  0  0  0  0  0
    7.8904   -6.8189   24.0932 C   0  0  0  0  0  0  0  0  0  0  0  0
    7.3458   -5.4138   24.0915 C   0  0  0  0  0  0  0  0  0  0  0  0
    6.1509   -5.1948   24.1681 O   0  0  0  0  0  0  0  0  0  0  0  0
    8.2855   -4.4122   24.0705 N   0  0  0  0  0  0  0  0  0  0  0  0
    7.9922   -3.0463   24.2595 C   0  0  0  0  0  0  0  0  0  0  0  0
    6.9887   -2.6381   25.1371 C   0  0  0  0  0  0  0  0  0  0  0  0
    6.7335   -1.2847   25.3141 C   0  0  0  0  0  0  0  0  0  0  0  0
    7.4488   -0.3298   24.6037 C   0  0  0  0  0  0  0  0  0  0  0  0
    8.4384   -0.7409   23.7045 C   0  0  0  0  0  0  0  0  0  0  0  0
    9.0508    0.2311   22.8515 N   0  0  0  0  0  0  0  0  0  0  0  0
   10.0398    1.1320   23.4532 C   0  0  0  0  0  0  0  0  0  0  0  0
   11.3266    0.3925   23.7605 C   0  0  0  0  0  0  0  0  0  0  0  0
   11.9648   -0.2376   22.7022 C   0  0  0  0  0  0  0  0  0  0  0  0
   13.1939   -0.8572   22.8721 C   0  0  0  0  0  0  0  0  0  0  0  0
   13.7419   -0.9698   24.1448 C   0  0  0  0  0  0  0  0  0  0  0  0
   13.0619   -0.4401   25.2297 C   0  0  0  0  0  0  0  0  0  0  0  0
   11.8749    0.2554   25.0341 C   0  0  0  0  0  0  0  0  0  0  0  0
    8.4242    0.6198   21.6765 C   0  0  0  0  0  0  0  0  0  0  0  0
    8.6047    1.7144   21.1805 O   0  0  0  0  0  0  0  0  0  0  0  0
    7.5432   -0.4348   20.9919 C   0  0  0  0  0  0  0  0  0  0  0  0
    6.7390    0.1150   19.8527 C   0  0  0  0  0  0  0  0  0  0  0  0
    7.0121   -0.1841   18.5443 C   0  0  0  0  0  0  0  0  0  0  0  0
    6.3187    0.2835   17.4708 N   0  0  0  0  0  0  0  0  0  0  0  0
    5.3084    1.0830   17.7147 C   0  0  0  0  0  0  0  0  0  0  0  0
    4.9114    1.4787   19.0229 C   0  0  0  0  0  0  0  0  0  0  0  0
    3.8228    2.3555   19.2515 C   0  0  0  0  0  0  0  0  0  0  0  0
    3.5058    2.7656   20.5165 C   0  0  0  0  0  0  0  0  0  0  0  0
    4.2239    2.2659   21.6235 C   0  0  0  0  0  0  0  0  0  0  0  0
    5.2584    1.3872   21.4330 C   0  0  0  0  0  0  0  0  0  0  0  0
    5.6471    0.9894   20.1238 C   0  0  0  0  0  0  0  0  0  0  0  0
    8.7354   -2.0902   23.5646 C   0  0  0  0  0  0  0  0  0  0  0  0
    7.4625   -7.1338   26.1973 H   0  0  0  0  0  0  0  0  0  0  0  0
    8.6498   -8.2673   25.5272 H   0  0  0  0  0  0  0  0  0  0  0  0
    9.1227   -6.6042   25.8880 H   0  0  0  0  0  0  0  0  0  0  0  0
    8.7292   -6.8979   23.3979 H   0  0  0  0  0  0  0  0  0  0  0  0
    7.0761   -7.4469   23.7265 H   0  0  0  0  0  0  0  0  0  0  0  0
    9.2264   -4.6358   23.7824 H   0  0  0  0  0  0  0  0  0  0  0  0
    6.4139   -3.3758   25.6782 H   0  0  0  0  0  0  0  0  0  0  0  0
    5.9509   -0.9717   26.0013 H   0  0  0  0  0  0  0  0  0  0  0  0
    7.2165    0.7292   24.7102 H   0  0  0  0  0  0  0  0  0  0  0  0
   10.1974    1.9305   22.7197 H   0  0  0  0  0  0  0  0  0  0  0  0
    9.6334    1.5902   24.3641 H   0  0  0  0  0  0  0  0  0  0  0  0
   11.4221   -0.2791   21.7710 H   0  0  0  0  0  0  0  0  0  0  0  0
   13.7157   -1.2777   22.0202 H   0  0  0  0  0  0  0  0  0  0  0  0
   14.6691   -1.5111   24.2973 H   0  0  0  0  0  0  0  0  0  0  0  0
   13.4216   -0.6178   26.2365 H   0  0  0  0  0  0  0  0  0  0  0  0
   11.3480    0.6238   25.9035 H   0  0  0  0  0  0  0  0  0  0  0  0
    6.8700   -0.8594   21.7452 H   0  0  0  0  0  0  0  0  0  0  0  0
    8.1961   -1.2506   20.6476 H   0  0  0  0  0  0  0  0  0  0  0  0
    7.8429   -0.8451   18.2938 H   0  0  0  0  0  0  0  0  0  0  0  0
    4.7781    1.4915   16.8533 H   0  0  0  0  0  0  0  0  0  0  0  0
    3.2638    2.7131   18.3934 H   0  0  0  0  0  0  0  0  0  0  0  0
    2.7122    3.4879   20.6736 H   0  0  0  0  0  0  0  0  0  0  0  0
    3.9504    2.5787   22.6275 H   0  0  0  0  0  0  0  0  0  0  0  0
    5.8037    1.0015   22.2907 H   0  0  0  0  0  0  0  0  0  0  0  0
    9.4916   -2.3960   22.8451 H   0  0  0  0  0  0  0  0  0  0  0  0
  1  2  1  0
  2  3  1  0
  3  4  2  0
  3  5  1  0
  5  6  1  0
  6  7  2  0
  7  8  1  0
  8  9  2  0
  9 10  1  0
 10 11  1  0
 11 12  1  0
 12 13  1  0
 13 14  2  0
 14 15  1  0
 15 16  2  0
 16 17  1  0
 17 18  2  0
 11 19  1  0
 19 20  2  0
 19 21  1  0
 21 22  1  0
 22 23  2  0
 23 24  1  0
 24 25  2  0
 25 26  1  0
 26 27  2  0
 27 28  1  0
 28 29  2  0
 29 30  1  0
 30 31  2  0
 10 32  2  0
 32  6  1  0
 18 13  1  0
 31 22  1  0
 31 26  1  0
  1 33  1  0
  1 34  1  0
  1 35  1  0
  2 36  1  0
  2 37  1  0
  5 38  1  0
  7 39  1  0
  8 40  1  0
  9 41  1  0
 12 42  1  0
 12 43  1  0
 14 44  1  0
 15 45  1  0
 16 46  1  0
 17 47  1  0
 18 48  1  0
 21 49  1  0
 21 50  1  0
 23 51  1  0
 25 52  1  0
 27 53  1  0
 28 54  1  0
 29 55  1  0
 30 56  1  0
 32 57  1  0
M  END
$$$$
