
     RDKit          3D

 64 70  0  0  0  0  0  0  0  0999 V2000
    9.1101    4.7809   22.9086 O   0  0  0  0  0  0  0  0  0  0  0  0
    8.9878    3.5616   22.8185 C   0  0  0  0  0  0  0  0  0  0  0  0
   10.0765    2.7175   22.2849 C   0  0  0  0  0  0  0  0  0  0  0  0
   11.2812    3.2955   21.9939 C   0  0  0  0  0  0  0  0  0  0  0  0
   12.4478    2.5008   21.7925 C   0  0  0  0  0  0  0  0  0  0  0  0
   12.1934    1.1636   21.6726 C   0  0  0  0  0  0  0  0  0  0  0  0
   10.6396    1.0964   24.1988 Cl  0  0  0  0  0  0  0  0  0  0  0  0
   11.0626    0.4688   21.7210 C   0  0  0  0  0  0  0  0  0  0  0  0
   10.0064    1.2396   22.5042 C   0  0  0  0  0  0  0  0  0  0  0  0
    8.5456    0.6908   22.4964 C   0  0  1  0  0  0  0  0  0  0  0  0
    7.7314    1.4979   23.5280 C   0  0  0  0  0  0  0  0  0  0  0  0
    7.8459    2.9283   23.2517 N   0  0  0  0  0  0  0  0  0  0  0  0
    6.7464    3.7697   23.6673 C   0  0  0  0  0  0  0  0  0  0  0  0
    6.6109    3.8665   25.1709 C   0  0  0  0  0  0  0  0  0  0  0  0
    5.9152    2.9464   25.9228 C   0  0  0  0  0  0  0  0  0  0  0  0
    5.8628    3.1526   27.2982 C   0  0  0  0  0  0  0  0  0  0  0  0
    6.4537    4.1704   27.9174 N   0  0  0  0  0  0  0  0  0  0  0  0
    7.1458    5.0499   27.2040 N   0  0  0  0  0  0  0  0  0  0  0  0
    7.2267    4.9007   25.8854 C   0  0  0  0  0  0  0  0  0  0  0  0
    7.8652    0.9604   21.1411 C   0  0  0  0  0  0  0  0  0  0  0  0
    7.9700    1.9539   20.4643 O   0  0  0  0  0  0  0  0  0  0  0  0
    7.0468   -0.1186   20.8460 N   0  0  0  0  0  0  0  0  0  0  0  0
    5.9873   -0.0631   19.8901 C   0  0  0  0  0  0  0  0  0  0  0  0
    6.1123   -0.7605   18.7161 C   0  0  0  0  0  0  0  0  0  0  0  0
    5.2639   -0.6691   17.6610 N   0  0  0  0  0  0  0  0  0  0  0  0
    4.2107    0.1004   17.7949 C   0  0  0  0  0  0  0  0  0  0  0  0
    3.8818    0.7885   18.9957 C   0  0  0  0  0  0  0  0  0  0  0  0
    2.6941    1.5613   19.1077 C   0  0  0  0  0  0  0  0  0  0  0  0
    2.3451    2.1348   20.2969 C   0  0  0  0  0  0  0  0  0  0  0  0
    3.1824    1.9723   21.4225 C   0  0  0  0  0  0  0  0  0  0  0  0
    4.3568    1.2642   21.3301 C   0  0  0  0  0  0  0  0  0  0  0  0
    4.7618    0.6710   20.1023 C   0  0  0  0  0  0  0  0  0  0  0  0
    7.2206   -1.2153   21.7809 C   0  0  0  0  0  0  0  0  0  0  0  0
    8.4742   -0.8426   22.5841 C   0  0  2  0  0  0  0  0  0  0  0  0
    8.5011   -1.6194   23.9184 C   0  0  0  0  0  0  0  0  0  0  0  0
    9.7183   -1.6141   24.7175 N   0  0  0  0  0  0  0  0  0  0  0  0
   10.9702   -1.9140   24.2605 C   0  0  0  0  0  0  0  0  0  0  0  0
   12.0579   -1.4515   24.8195 N   0  0  0  0  0  0  0  0  0  0  0  0
   13.1888   -1.8402   24.1694 N   0  0  0  0  0  0  0  0  0  0  0  0
   12.9518   -2.6088   23.1621 C   0  0  0  0  0  0  0  0  0  0  0  0
   11.2611   -2.9512   22.9057 S   0  0  0  0  0  0  0  0  0  0  0  0
   11.3181    4.3760   21.9837 H   0  0  0  0  0  0  0  0  0  0  0  0
   13.4246    2.9846   21.7594 H   0  0  0  0  0  0  0  0  0  0  0  0
   10.8794   -0.5228   21.3321 H   0  0  0  0  0  0  0  0  0  0  0  0
    8.0398    1.2802   24.5564 H   0  0  0  0  0  0  0  0  0  0  0  0
    6.6775    1.2219   23.4328 H   0  0  0  0  0  0  0  0  0  0  0  0
    6.9351    4.7595   23.2441 H   0  0  0  0  0  0  0  0  0  0  0  0
    5.8254    3.3651   23.2246 H   0  0  0  0  0  0  0  0  0  0  0  0
    5.4072    2.0946   25.4657 H   0  0  0  0  0  0  0  0  0  0  0  0
    5.3052    2.4751   27.9398 H   0  0  0  0  0  0  0  0  0  0  0  0
    7.8054    5.6573   25.3568 H   0  0  0  0  0  0  0  0  0  0  0  0
    6.9628   -1.4258   18.5743 H   0  0  0  0  0  0  0  0  0  0  0  0
    3.5352    0.1839   16.9404 H   0  0  0  0  0  0  0  0  0  0  0  0
    2.0771    1.6981   18.2254 H   0  0  0  0  0  0  0  0  0  0  0  0
    1.4291    2.7147   20.3833 H   0  0  0  0  0  0  0  0  0  0  0  0
    2.9002    2.4264   22.3663 H   0  0  0  0  0  0  0  0  0  0  0  0
    4.9721    1.1419   22.2160 H   0  0  0  0  0  0  0  0  0  0  0  0
    7.3642   -2.1696   21.2689 H   0  0  0  0  0  0  0  0  0  0  0  0
    6.3575   -1.3180   22.4539 H   0  0  0  0  0  0  0  0  0  0  0  0
    9.3512   -1.1526   22.0152 H   0  0  0  0  0  0  0  0  0  0  0  0
    8.2282   -2.6537   23.6931 H   0  0  0  0  0  0  0  0  0  0  0  0
    7.7123   -1.2303   24.5699 H   0  0  0  0  0  0  0  0  0  0  0  0
    9.7769   -0.8404   25.3627 H   0  0  0  0  0  0  0  0  0  0  0  0
   13.7235   -3.0288   22.5318 H   0  0  0  0  0  0  0  0  0  0  0  0
  1  2  2  0
  2  3  1  0
  3  4  2  0
  4  5  1  0
  5  6  2  0
  6  7  1  0
  6  8  1  0
  8  9  2  0
  9 10  1  0
 10 11  1  1
 11 12  1  0
 12 13  1  0
 13 14  1  0
 14 15  2  0
 15 16  1  0
 16 17  2  0
 17 18  1  0
 18 19  2  0
 10 20  1  0
 20 21  2  0
 20 22  1  0
 22 23  1  0
 23 24  2  0
 24 25  1  0
 25 26  2  0
 26 27  1  0
 27 28  2  0
 28 29  1  0
 29 30  2  0
 30 31  1  0
 31 32  2  0
 22 33  1  0
 33 34  1  0
 34 35  1  0
 35 36  1  0
 36 37  1  0
 37 38  2  0
 38 39  1  0
 39 40  2  0
 40 41  1  0
 12  2  1  0
 19 14  1  0
 32 23  1  0
 41 37  1  0
  9  3  1  0
 34 10  1  0
 32 27  1  0
  4 42  1  0
  5 43  1  0
  8 44  1  0
 11 45  1  0
 11 46  1  0
 13 47  1  0
 13 48  1  0
 15 49  1  0
 16 50  1  0
 19 51  1  0
 24 52  1  0
 26 53  1  0
 28 54  1  0
 29 55  1  0
 30 56  1  0
 31 57  1  0
 33 58  1  0
 33 59  1  0
 34 60  1  6
 35 61  1  0
 35 62  1  0
 36 63  1  0
 40 64  1  0
M  END
$$$$
