
     RDKit          3D

 40 42  0  0  0  0  0  0  0  0999 V2000
    9.6614   -3.8892   26.0209 C   0  0  0  0  0  0  0  0  0  0  0  0
    9.1521   -3.5494   24.6216 C   0  0  0  0  0  0  0  0  0  0  0  0
    9.2868   -2.0642   24.3126 C   0  0  0  0  0  0  0  0  0  0  0  0
    8.7659   -1.7127   22.9219 C   0  0  0  0  0  0  0  0  0  0  0  0
    7.4077   -2.1946   22.7289 N   0  0  0  0  0  0  0  0  0  0  0  0
    6.4295   -1.5144   22.0309 C   0  0  0  0  0  0  0  0  0  0  0  0
    5.2512   -1.7943   22.1423 O   0  0  0  0  0  0  0  0  0  0  0  0
    6.8744   -0.3998   21.0564 C   0  0  0  0  0  0  0  0  0  0  0  0
    5.8660   -0.1879   19.9559 C   0  0  0  0  0  0  0  0  0  0  0  0
    6.0387   -0.8105   18.7495 C   0  0  0  0  0  0  0  0  0  0  0  0
    5.2303   -0.6794   17.6664 N   0  0  0  0  0  0  0  0  0  0  0  0
    4.1690    0.0775   17.8051 C   0  0  0  0  0  0  0  0  0  0  0  0
    3.8202    0.7303   19.0179 C   0  0  0  0  0  0  0  0  0  0  0  0
    2.6272    1.4844   19.1483 C   0  0  0  0  0  0  0  0  0  0  0  0
    2.3022    2.0949   20.3274 C   0  0  0  0  0  0  0  0  0  0  0  0
    3.1828    2.0021   21.4261 C   0  0  0  0  0  0  0  0  0  0  0  0
    4.3509    1.2865   21.3243 C   0  0  0  0  0  0  0  0  0  0  0  0
    4.6966    0.6125   20.1231 C   0  0  0  0  0  0  0  0  0  0  0  0
    7.1819   -3.6008   23.0504 C   0  0  0  0  0  0  0  0  0  0  0  0
    7.6950   -3.9547   24.4373 C   0  0  0  0  0  0  0  0  0  0  0  0
    9.0835   -3.3555   26.7846 H   0  0  0  0  0  0  0  0  0  0  0  0
   10.7123   -3.6048   26.1468 H   0  0  0  0  0  0  0  0  0  0  0  0
    9.5739   -4.9612   26.2329 H   0  0  0  0  0  0  0  0  0  0  0  0
    9.7570   -4.1049   23.8914 H   0  0  0  0  0  0  0  0  0  0  0  0
   10.3339   -1.7589   24.3948 H   0  0  0  0  0  0  0  0  0  0  0  0
    8.7422   -1.4881   25.0676 H   0  0  0  0  0  0  0  0  0  0  0  0
    9.4477   -2.1388   22.1697 H   0  0  0  0  0  0  0  0  0  0  0  0
    8.7770   -0.6306   22.7933 H   0  0  0  0  0  0  0  0  0  0  0  0
    7.0229    0.5384   21.6079 H   0  0  0  0  0  0  0  0  0  0  0  0
    7.8415   -0.6637   20.6014 H   0  0  0  0  0  0  0  0  0  0  0  0
    6.8826   -1.4804   18.5952 H   0  0  0  0  0  0  0  0  0  0  0  0
    3.5152    0.1829   16.9358 H   0  0  0  0  0  0  0  0  0  0  0  0
    1.9892    1.6002   18.2820 H   0  0  0  0  0  0  0  0  0  0  0  0
    1.3701    2.6486   20.4216 H   0  0  0  0  0  0  0  0  0  0  0  0
    2.9324    2.5121   22.3524 H   0  0  0  0  0  0  0  0  0  0  0  0
    5.0178    1.2271   22.1766 H   0  0  0  0  0  0  0  0  0  0  0  0
    6.1133   -3.7918   22.9678 H   0  0  0  0  0  0  0  0  0  0  0  0
    7.6863   -4.2419   22.3098 H   0  0  0  0  0  0  0  0  0  0  0  0
    7.5824   -5.0304   24.6116 H   0  0  0  0  0  0  0  0  0  0  0  0
    7.0807   -3.4580   25.1952 H   0  0  0  0  0  0  0  0  0  0  0  0
  1  2  1  0
  2  3  1  0
  3  4  1  0
  4  5  1  0
  5  6  1  0
  6  7  2  0
  6  8  1  0
  8  9  1  0
  9 10  2  0
 10 11  1  0
 11 12  2  0
 12 13  1  0
 13 14  2  0
 14 15  1  0
 15 16  2  0
 16 17  1  0
 17 18  2  0
  5 19  1  0
 19 20  1  0
 20  2  1  0
 18  9  1  0
 18 13  1  0
  1 21  1  0
  1 22  1  0
  1 23  1  0
  2 24  1  0
  3 25  1  0
  3 26  1  0
  4 27  1  0
  4 28  1  0
  8 29  1  0
  8 30  1  0
 10 31  1  0
 12 32  1  0
 14 33  1  0
 15 34  1  0
 16 35  1  0
 17 36  1  0
 19 37  1  0
 19 38  1  0
 20 39  1  0
 20 40  1  0
M  END
$$$$
