LIG(A-306)
     RDKit          3D

 30 33  0  0  1  0  0  0  0  0999 V2000
   14.0105   -1.5484   21.4076 Cl  0  0  0  0  0  0  0  0  0  0  0  0
   12.8105   -0.7886   22.4157 C   0  0  0  0  0  0  0  0  0  0  0  0
   11.4955   -1.1987   22.3198 C   0  0  0  0  0  0  0  0  0  0  0  0
   13.1894    0.2315   23.2577 C   0  0  0  0  0  0  0  0  0  0  0  0
   12.2264    0.8553   24.0298 C   0  0  0  0  0  0  0  0  0  0  0  0
   10.8854    0.4852   23.9458 C   0  0  0  0  0  0  0  0  0  0  0  0
    9.8644    1.2100   24.7959 C   0  0  0  0  0  0  0  0  0  0  0  0
    8.4844    0.9728   24.3410 N   0  0  2  0  0  0  0  0  0  0  0  0
    7.4884    1.5937   25.2061 C   0  0  0  0  0  0  0  0  0  0  0  0
    6.7952    2.7976   24.5911 C   0  0  0  0  0  0  0  0  0  0  0  0
    5.9421    3.4125   25.2262 O   0  0  0  0  0  0  0  0  0  0  0  0
    7.1410    3.1327   23.3511 N   0  0  0  0  0  0  0  0  0  0  0  0
    6.5118    4.2296   22.6382 C   0  0  0  0  0  0  0  0  0  0  0  0
   10.5155   -0.5469   23.0699 C   0  0  0  0  0  0  0  0  0  0  0  0
    9.0495   -0.8951   22.8940 C   0  0  1  0  0  0  0  0  0  0  0  0
    8.2516   -0.4542   24.1210 C   0  0  0  0  0  0  0  0  0  0  0  0
    8.5184   -0.1381   21.6740 C   0  0  0  0  0  0  0  0  0  0  0  0
    8.9682    0.9569   21.3350 O   0  0  0  0  0  0  0  0  0  0  0  0
    7.4734   -0.7383   21.0541 N   0  0  0  0  0  0  0  0  0  0  0  0
    6.6923   -0.2444   19.9851 C   0  0  0  0  0  0  0  0  0  0  0  0
    5.5752    0.5915   20.2982 C   0  0  0  0  0  0  0  0  0  0  0  0
    5.0702    0.7664   21.6102 C   0  0  0  0  0  0  0  0  0  0  0  0
    4.0001    1.5763   21.8493 C   0  0  0  0  0  0  0  0  0  0  0  0
    3.4100    2.2352   20.7974 C   0  0  0  0  0  0  0  0  0  0  0  0
    2.3629    3.0581   21.0664 F   0  0  0  0  0  0  0  0  0  0  0  0
    3.8239    2.1203   19.5113 C   0  0  0  0  0  0  0  0  0  0  0  0
    4.9300    1.2804   19.2292 C   0  0  0  0  0  0  0  0  0  0  0  0
    5.4300    1.0785   17.9172 C   0  0  0  0  0  0  0  0  0  0  0  0
    6.4660    0.3026   17.6261 N   0  0  0  0  0  0  0  0  0  0  0  0
    7.0702   -0.3313   18.6431 C   0  0  0  0  0  0  0  0  0  0  0  0
  1  2  1  0
  2  3  2  0
  2  4  1  0
  3 14  1  0
  4  5  2  0
  5  6  1  0
  6  7  1  0
  6 14  2  0
  7  8  1  0
  8  9  1  1
  8 16  1  0
  9 10  1  0
 10 11  2  0
 10 12  1  0
 12 13  1  0
 14 15  1  0
 15 16  1  0
 15 17  1  6
 17 18  2  0
 17 19  1  0
 19 20  1  0
 20 21  1  0
 20 30  2  0
 21 22  2  0
 21 27  1  0
 22 23  1  0
 23 24  2  0
 24 25  1  0
 24 26  1  0
 26 27  2  0
 27 28  1  0
 28 29  2  0
 29 30  1  0
M  CHG  1   8   1
M  END
$$$$
