
     RDKit          3D

 41 43  0  0  0  0  0  0  0  0999 V2000
    5.3708   -2.0762   21.9096 O   0  0  0  0  0  0  0  0  0  0  0  0
    6.3293   -1.3689   22.1524 C   0  0  0  0  0  0  0  0  0  0  0  0
    6.8479   -0.3922   21.0805 C   0  0  0  0  0  0  0  0  0  0  0  0
    5.8594   -0.1975   19.9588 C   0  0  0  0  0  0  0  0  0  0  0  0
    6.0374   -0.8167   18.7495 C   0  0  0  0  0  0  0  0  0  0  0  0
    5.2306   -0.6826   17.6633 N   0  0  0  0  0  0  0  0  0  0  0  0
    4.1689    0.0747   17.8023 C   0  0  0  0  0  0  0  0  0  0  0  0
    3.8206    0.7276   19.0169 C   0  0  0  0  0  0  0  0  0  0  0  0
    2.6264    1.4802   19.1500 C   0  0  0  0  0  0  0  0  0  0  0  0
    2.3034    2.0943   20.3277 C   0  0  0  0  0  0  0  0  0  0  0  0
    3.1836    2.0029   21.4283 C   0  0  0  0  0  0  0  0  0  0  0  0
    4.3526    1.2852   21.3265 C   0  0  0  0  0  0  0  0  0  0  0  0
    4.6962    0.6076   20.1242 C   0  0  0  0  0  0  0  0  0  0  0  0
    6.9733   -1.3880   23.3831 N   0  0  0  0  0  0  0  0  0  0  0  0
    8.3971   -1.0852   23.5020 C   0  0  0  0  0  0  0  0  0  0  0  0
    9.3270   -2.1979   23.0178 C   0  0  0  0  0  0  0  0  0  0  0  0
    9.4468   -3.3629   23.9900 C   0  0  0  0  0  0  0  0  0  0  0  0
    7.9084   -4.2508   24.3410 S   0  0  0  0  0  0  0  0  0  0  0  0
    7.0787   -2.9871   25.3336 C   0  0  0  0  0  0  0  0  0  0  0  0
    6.2681   -1.9867   24.5053 C   0  0  1  0  0  0  0  0  0  0  0  0
    5.7190   -0.8646   25.3835 C   0  0  0  0  0  0  0  0  0  0  0  0
    6.7050   -0.1408   25.9509 F   0  0  0  0  0  0  0  0  0  0  0  0
    4.9579   -0.0187   24.6729 F   0  0  0  0  0  0  0  0  0  0  0  0
    4.9678   -1.3503   26.3887 F   0  0  0  0  0  0  0  0  0  0  0  0
    7.7820   -0.7829   20.6505 H   0  0  0  0  0  0  0  0  0  0  0  0
    7.0906    0.5866   21.5228 H   0  0  0  0  0  0  0  0  0  0  0  0
    6.8819   -1.4828   18.5962 H   0  0  0  0  0  0  0  0  0  0  0  0
    3.5134    0.1838   16.9344 H   0  0  0  0  0  0  0  0  0  0  0  0
    1.9839    1.5965   18.2848 H   0  0  0  0  0  0  0  0  0  0  0  0
    1.3693    2.6454   20.4210 H   0  0  0  0  0  0  0  0  0  0  0  0
    2.9326    2.5130   22.3533 H   0  0  0  0  0  0  0  0  0  0  0  0
    5.0209    1.2439   22.1827 H   0  0  0  0  0  0  0  0  0  0  0  0
    8.6081   -0.8501   24.5440 H   0  0  0  0  0  0  0  0  0  0  0  0
    8.5964   -0.1686   22.9471 H   0  0  0  0  0  0  0  0  0  0  0  0
    8.9715   -2.5734   22.0553 H   0  0  0  0  0  0  0  0  0  0  0  0
   10.3360   -1.7922   22.8480 H   0  0  0  0  0  0  0  0  0  0  0  0
    9.8349   -3.0205   24.9528 H   0  0  0  0  0  0  0  0  0  0  0  0
   10.1536   -4.1091   23.6149 H   0  0  0  0  0  0  0  0  0  0  0  0
    7.8312   -2.4937   25.9528 H   0  0  0  0  0  0  0  0  0  0  0  0
    6.4171   -3.5172   26.0264 H   0  0  0  0  0  0  0  0  0  0  0  0
    5.3877   -2.5012   24.1104 H   0  0  0  0  0  0  0  0  0  0  0  0
  1  2  2  0
  2  3  1  0
  3  4  1  0
  4  5  2  0
  5  6  1  0
  6  7  2  0
  7  8  1  0
  8  9  2  0
  9 10  1  0
 10 11  2  0
 11 12  1  0
 12 13  2  0
  2 14  1  0
 14 15  1  0
 15 16  1  0
 16 17  1  0
 17 18  1  0
 18 19  1  0
 19 20  1  0
 20 21  1  0
 21 22  1  0
 21 23  1  0
 21 24  1  0
 13  4  1  0
 20 14  1  0
 13  8  1  0
  3 25  1  0
  3 26  1  0
  5 27  1  0
  7 28  1  0
  9 29  1  0
 10 30  1  0
 11 31  1  0
 12 32  1  0
 15 33  1  0
 15 34  1  0
 16 35  1  0
 16 36  1  0
 17 37  1  0
 17 38  1  0
 19 39  1  0
 19 40  1  0
 20 41  1  6
M  END
$$$$
