
     RDKit          3D

 62 67  0  0  0  0  0  0  0  0999 V2000
   -7.6702    4.5240  -27.1889 C   0  0  0  0  0  0  0  0  0  0  0  0
   -8.9089    3.6398  -27.1676 C   0  0  0  0  0  0  0  0  0  0  0  0
   -8.5911    2.2680  -27.5454 N   0  0  0  0  0  0  0  0  0  0  0  0
   -8.6851    1.9370  -28.8415 N   0  0  0  0  0  0  0  0  0  0  0  0
   -8.4174    0.6416  -28.8890 C   0  0  0  0  0  0  0  0  0  0  0  0
   -8.1318    0.1259  -27.6055 C   0  0  0  0  0  0  0  0  0  0  0  0
   -8.2434    1.2143  -26.7554 C   0  0  0  0  0  0  0  0  0  0  0  0
   -8.0649    1.3512  -25.2607 C   0  0  0  0  0  0  0  0  0  0  0  0
   -8.9167    0.4617  -24.5024 N   0  0  0  0  0  0  0  0  0  0  0  0
   -8.5013   -0.9075  -24.2777 C   0  0  0  0  0  0  0  0  0  0  0  0
   -9.0574   -1.4357  -22.9277 C   0  0  2  0  0  0  0  0  0  0  0  0
   -8.4582   -0.5822  -21.7656 C   0  0  0  0  0  0  0  0  0  0  0  0
   -8.7417    0.5517  -21.4622 O   0  0  0  0  0  0  0  0  0  0  0  0
   -7.4917   -1.3401  -21.1273 N   0  0  0  0  0  0  0  0  0  0  0  0
   -6.6440   -0.8212  -20.1093 C   0  0  0  0  0  0  0  0  0  0  0  0
   -6.8598   -1.1843  -18.8033 C   0  0  0  0  0  0  0  0  0  0  0  0
   -6.0729   -0.8223  -17.7608 N   0  0  0  0  0  0  0  0  0  0  0  0
   -5.0416   -0.0571  -18.0225 C   0  0  0  0  0  0  0  0  0  0  0  0
   -4.7198    0.4247  -19.3213 C   0  0  0  0  0  0  0  0  0  0  0  0
   -3.6440    1.3284  -19.5248 C   0  0  0  0  0  0  0  0  0  0  0  0
   -3.3370    1.7562  -20.7874 C   0  0  0  0  0  0  0  0  0  0  0  0
   -4.0732    1.2890  -21.9000 C   0  0  0  0  0  0  0  0  0  0  0  0
   -5.1380    0.4429  -21.7225 C   0  0  0  0  0  0  0  0  0  0  0  0
   -5.5108    0.0059  -20.4164 C   0  0  0  0  0  0  0  0  0  0  0  0
   -7.2101   -2.5864  -21.8147 C   0  0  0  0  0  0  0  0  0  0  0  0
   -8.5252   -2.8450  -22.5587 C   0  0  2  0  0  0  0  0  0  0  0  0
   -8.4267   -3.8385  -23.7068 C   0  0  0  0  0  0  0  0  0  0  0  0
  -10.5677   -1.3059  -23.0468 C   0  0  0  0  0  0  0  0  0  0  0  0
  -11.4752   -2.2847  -22.6223 C   0  0  0  0  0  0  0  0  0  0  0  0
  -12.8232   -1.9906  -22.6261 C   0  0  0  0  0  0  0  0  0  0  0  0
  -13.6847   -2.9050  -22.1471 F   0  0  0  0  0  0  0  0  0  0  0  0
  -13.3425   -0.7898  -23.0931 C   0  0  0  0  0  0  0  0  0  0  0  0
  -12.4556    0.1432  -23.5877 C   0  0  0  0  0  0  0  0  0  0  0  0
  -11.0869   -0.1193  -23.5911 C   0  0  0  0  0  0  0  0  0  0  0  0
  -10.1730    0.8991  -24.1993 C   0  0  0  0  0  0  0  0  0  0  0  0
  -10.5466    2.0456  -24.4191 O   0  0  0  0  0  0  0  0  0  0  0  0
   -6.9091    4.1505  -26.4924 H   0  0  0  0  0  0  0  0  0  0  0  0
   -7.9306    5.5502  -26.9149 H   0  0  0  0  0  0  0  0  0  0  0  0
   -7.2552    4.5222  -28.2012 H   0  0  0  0  0  0  0  0  0  0  0  0
   -9.4128    3.6326  -26.1950 H   0  0  0  0  0  0  0  0  0  0  0  0
   -9.6335    3.9768  -27.9147 H   0  0  0  0  0  0  0  0  0  0  0  0
   -8.4442    0.1444  -29.8569 H   0  0  0  0  0  0  0  0  0  0  0  0
   -7.9078   -0.9021  -27.3446 H   0  0  0  0  0  0  0  0  0  0  0  0
   -7.0255    1.1472  -24.9744 H   0  0  0  0  0  0  0  0  0  0  0  0
   -8.2939    2.3719  -24.9345 H   0  0  0  0  0  0  0  0  0  0  0  0
   -7.4086   -0.9332  -24.2712 H   0  0  0  0  0  0  0  0  0  0  0  0
   -8.8556   -1.5558  -25.0924 H   0  0  0  0  0  0  0  0  0  0  0  0
   -7.7118   -1.8173  -18.5583 H   0  0  0  0  0  0  0  0  0  0  0  0
   -4.4019    0.2330  -17.1899 H   0  0  0  0  0  0  0  0  0  0  0  0
   -3.0882    1.6790  -18.6571 H   0  0  0  0  0  0  0  0  0  0  0  0
   -2.5211    2.4539  -20.9428 H   0  0  0  0  0  0  0  0  0  0  0  0
   -3.7982    1.6176  -22.9006 H   0  0  0  0  0  0  0  0  0  0  0  0
   -5.7139    0.1195  -22.5868 H   0  0  0  0  0  0  0  0  0  0  0  0
   -6.9811   -3.3694  -21.0881 H   0  0  0  0  0  0  0  0  0  0  0  0
   -6.3573   -2.4986  -22.5131 H   0  0  0  0  0  0  0  0  0  0  0  0
   -9.2012   -3.2406  -21.7906 H   0  0  0  0  0  0  0  0  0  0  0  0
   -8.1293   -4.8277  -23.3446 H   0  0  0  0  0  0  0  0  0  0  0  0
   -9.3933   -3.9276  -24.2149 H   0  0  0  0  0  0  0  0  0  0  0  0
   -7.6873   -3.5043  -24.4442 H   0  0  0  0  0  0  0  0  0  0  0  0
  -11.1661   -3.2712  -22.2878 H   0  0  0  0  0  0  0  0  0  0  0  0
  -14.4135   -0.6185  -23.0731 H   0  0  0  0  0  0  0  0  0  0  0  0
  -12.7997    1.0892  -23.9870 H   0  0  0  0  0  0  0  0  0  0  0  0
  1  2  1  0
  2  3  1  0
  3  4  1  0
  4  5  2  0
  5  6  1  0
  6  7  2  0
  7  8  1  0
  8  9  1  0
  9 10  1  0
 11 10  1  6
 11 12  1  0
 12 13  2  0
 12 14  1  0
 14 15  1  0
 15 16  2  0
 16 17  1  0
 17 18  2  0
 18 19  1  0
 19 20  2  0
 20 21  1  0
 21 22  2  0
 22 23  1  0
 23 24  2  0
 14 25  1  0
 25 26  1  0
 26 27  1  0
 11 28  1  0
 28 29  2  0
 29 30  1  0
 30 31  1  0
 30 32  2  0
 32 33  1  0
 33 34  2  0
 34 35  1  0
 35 36  2  0
  7  3  1  0
 35  9  1  0
 26 11  1  0
 34 28  1  0
 24 15  1  0
 24 19  1  0
  1 37  1  0
  1 38  1  0
  1 39  1  0
  2 40  1  0
  2 41  1  0
  5 42  1  0
  6 43  1  0
  8 44  1  0
  8 45  1  0
 10 46  1  0
 10 47  1  0
 16 48  1  0
 18 49  1  0
 20 50  1  0
 21 51  1  0
 22 52  1  0
 23 53  1  0
 25 54  1  0
 25 55  1  0
 26 56  1  1
 27 57  1  0
 27 58  1  0
 27 59  1  0
 29 60  1  0
 32 61  1  0
 33 62  1  0
M  END
