
     RDKit          3D

 62 67  0  0  0  0  0  0  0  0999 V2000
    8.0177    5.6399   27.0526 C   0  0  0  0  0  0  0  0  0  0  0  0
    9.2799    4.7902   27.0176 C   0  0  0  0  0  0  0  0  0  0  0  0
    9.0090    3.4164   27.4237 N   0  0  0  0  0  0  0  0  0  0  0  0
    9.1405    3.1092   28.7225 N   0  0  0  0  0  0  0  0  0  0  0  0
    8.9103    1.8078   28.7961 C   0  0  0  0  0  0  0  0  0  0  0  0
    8.6114    1.2637   27.5275 C   0  0  0  0  0  0  0  0  0  0  0  0
    8.6739    2.3408   26.6582 C   0  0  0  0  0  0  0  0  0  0  0  0
    8.4591    2.4484   25.1659 C   0  0  0  0  0  0  0  0  0  0  0  0
    9.3188    1.5706   24.4029 N   0  0  0  0  0  0  0  0  0  0  0  0
    8.9372    0.1870   24.2089 C   0  0  0  0  0  0  0  0  0  0  0  0
    9.4784   -0.3475   22.8553 C   0  0  2  0  0  0  0  0  0  0  0  0
    8.8303    0.4701   21.6936 C   0  0  0  0  0  0  0  0  0  0  0  0
    9.0752    1.6064   21.3663 O   0  0  0  0  0  0  0  0  0  0  0  0
    7.8718   -0.3245   21.0888 N   0  0  0  0  0  0  0  0  0  0  0  0
    6.9879    0.1541   20.0819 C   0  0  0  0  0  0  0  0  0  0  0  0
    7.1853   -0.2241   18.7773 C   0  0  0  0  0  0  0  0  0  0  0  0
    6.3661    0.0990   17.7470 N   0  0  0  0  0  0  0  0  0  0  0  0
    5.3197    0.8395   18.0195 C   0  0  0  0  0  0  0  0  0  0  0  0
    5.0128    1.3333   19.3175 C   0  0  0  0  0  0  0  0  0  0  0  0
    3.9168    2.2100   19.5307 C   0  0  0  0  0  0  0  0  0  0  0  0
    3.6255    2.6496   20.7929 C   0  0  0  0  0  0  0  0  0  0  0  0
    4.3985    2.2211   21.8961 C   0  0  0  0  0  0  0  0  0  0  0  0
    5.4825    1.4020   21.7082 C   0  0  0  0  0  0  0  0  0  0  0  0
    5.8389    0.9544   20.4012 C   0  0  0  0  0  0  0  0  0  0  0  0
    7.6403   -1.5668   21.8017 C   0  0  0  0  0  0  0  0  0  0  0  0
    8.9780   -1.7768   22.5203 C   0  0  2  0  0  0  0  0  0  0  0  0
    8.9324   -2.7539   23.6856 C   0  0  0  0  0  0  0  0  0  0  0  0
   10.9867   -0.1740   22.9388 C   0  0  0  0  0  0  0  0  0  0  0  0
   11.9118   -1.1340   22.5095 C   0  0  0  0  0  0  0  0  0  0  0  0
   13.2508   -0.8027   22.4788 C   0  0  0  0  0  0  0  0  0  0  0  0
   14.1270   -1.7006   21.9951 F   0  0  0  0  0  0  0  0  0  0  0  0
   13.7463    0.4194   22.9153 C   0  0  0  0  0  0  0  0  0  0  0  0
   12.8445    1.3354   23.4149 C   0  0  0  0  0  0  0  0  0  0  0  0
   11.4841    1.0352   23.4528 C   0  0  0  0  0  0  0  0  0  0  0  0
   10.5555    2.0377   24.0651 C   0  0  0  0  0  0  0  0  0  0  0  0
   10.9015    3.1975   24.2586 O   0  0  0  0  0  0  0  0  0  0  0  0
    7.2524    5.2342   26.3791 H   0  0  0  0  0  0  0  0  0  0  0  0
    8.2432    6.6684   26.7569 H   0  0  0  0  0  0  0  0  0  0  0  0
    7.6250    5.6431   28.0737 H   0  0  0  0  0  0  0  0  0  0  0  0
    9.7625    4.7811   26.0343 H   0  0  0  0  0  0  0  0  0  0  0  0
   10.0109    5.1592   27.7430 H   0  0  0  0  0  0  0  0  0  0  0  0
    8.9721    1.3274   29.7708 H   0  0  0  0  0  0  0  0  0  0  0  0
    8.4107    0.2257   27.2877 H   0  0  0  0  0  0  0  0  0  0  0  0
    7.4199    2.2111   24.9060 H   0  0  0  0  0  0  0  0  0  0  0  0
    8.6523    3.4696   24.8188 H   0  0  0  0  0  0  0  0  0  0  0  0
    7.8458    0.1309   24.2270 H   0  0  0  0  0  0  0  0  0  0  0  0
    9.3272   -0.4379   25.0255 H   0  0  0  0  0  0  0  0  0  0  0  0
    8.0492   -0.8371   18.5233 H   0  0  0  0  0  0  0  0  0  0  0  0
    4.6541    1.0982   17.1969 H   0  0  0  0  0  0  0  0  0  0  0  0
    3.3326    2.5310   18.6702 H   0  0  0  0  0  0  0  0  0  0  0  0
    2.7939    3.3269   20.9555 H   0  0  0  0  0  0  0  0  0  0  0  0
    4.1363    2.5582   22.8973 H   0  0  0  0  0  0  0  0  0  0  0  0
    6.0860    1.1088   22.5645 H   0  0  0  0  0  0  0  0  0  0  0  0
    7.4176   -2.3676   21.0927 H   0  0  0  0  0  0  0  0  0  0  0  0
    6.8008   -1.4913   22.5174 H   0  0  0  0  0  0  0  0  0  0  0  0
    9.6479   -2.1659   21.7436 H   0  0  0  0  0  0  0  0  0  0  0  0
    8.6551   -3.7567   23.3456 H   0  0  0  0  0  0  0  0  0  0  0  0
    9.9120   -2.8079   24.1735 H   0  0  0  0  0  0  0  0  0  0  0  0
    8.2002   -2.4283   24.4340 H   0  0  0  0  0  0  0  0  0  0  0  0
   11.6233   -2.1340   22.1975 H   0  0  0  0  0  0  0  0  0  0  0  0
   14.8113    0.6200   22.8689 H   0  0  0  0  0  0  0  0  0  0  0  0
   13.1706    2.2970   23.7916 H   0  0  0  0  0  0  0  0  0  0  0  0
  1  2  1  0
  2  3  1  0
  3  4  1  0
  4  5  2  0
  5  6  1  0
  6  7  2  0
  7  8  1  0
  8  9  1  0
  9 10  1  0
 11 10  1  1
 11 12  1  0
 12 13  2  0
 12 14  1  0
 14 15  1  0
 15 16  2  0
 16 17  1  0
 17 18  2  0
 18 19  1  0
 19 20  2  0
 20 21  1  0
 21 22  2  0
 22 23  1  0
 23 24  2  0
 14 25  1  0
 25 26  1  0
 26 27  1  0
 11 28  1  0
 28 29  2  0
 29 30  1  0
 30 31  1  0
 30 32  2  0
 32 33  1  0
 33 34  2  0
 34 35  1  0
 35 36  2  0
  7  3  1  0
 35  9  1  0
 26 11  1  0
 34 28  1  0
 24 15  1  0
 24 19  1  0
  1 37  1  0
  1 38  1  0
  1 39  1  0
  2 40  1  0
  2 41  1  0
  5 42  1  0
  6 43  1  0
  8 44  1  0
  8 45  1  0
 10 46  1  0
 10 47  1  0
 16 48  1  0
 18 49  1  0
 20 50  1  0
 21 51  1  0
 22 52  1  0
 23 53  1  0
 25 54  1  0
 25 55  1  0
 26 56  1  6
 27 57  1  0
 27 58  1  0
 27 59  1  0
 29 60  1  0
 32 61  1  0
 33 62  1  0
M  END
$$$$
