
     RDKit          3D

 66 70  0  0  0  0  0  0  0  0999 V2000
    7.2888    4.6511   22.3782 C   0  0  0  0  0  0  0  0  0  0  0  0
    8.0949    3.7364   23.1565 N   0  0  0  0  0  0  0  0  0  0  0  0
    7.8432    3.5907   24.4747 C   0  0  0  0  0  0  0  0  0  0  0  0
    7.0701    4.3050   25.0960 O   0  0  0  0  0  0  0  0  0  0  0  0
    8.5550    2.4623   25.2283 C   0  0  0  0  0  0  0  0  0  0  0  0
    9.3907    1.5770   24.4590 N   0  0  0  0  0  0  0  0  0  0  0  0
    8.9468    0.2170   24.2085 C   0  0  0  0  0  0  0  0  0  0  0  0
    9.4889   -0.3197   22.8607 C   0  0  2  0  0  0  0  0  0  0  0  0
    8.8409    0.4874   21.7081 C   0  0  0  0  0  0  0  0  0  0  0  0
    9.0939    1.6406   21.4070 O   0  0  0  0  0  0  0  0  0  0  0  0
    7.8874   -0.2893   21.0965 N   0  0  0  0  0  0  0  0  0  0  0  0
    7.0019    0.1892   20.0888 C   0  0  0  0  0  0  0  0  0  0  0  0
    7.2100   -0.1838   18.7841 C   0  0  0  0  0  0  0  0  0  0  0  0
    6.4092    0.1640   17.7465 N   0  0  0  0  0  0  0  0  0  0  0  0
    5.3669    0.9151   18.0050 C   0  0  0  0  0  0  0  0  0  0  0  0
    5.0368    1.3856   19.3084 C   0  0  0  0  0  0  0  0  0  0  0  0
    3.9320    2.2488   19.5326 C   0  0  0  0  0  0  0  0  0  0  0  0
    3.6160    2.6542   20.7978 C   0  0  0  0  0  0  0  0  0  0  0  0
    4.3834    2.2176   21.8998 C   0  0  0  0  0  0  0  0  0  0  0  0
    5.4833    1.4176   21.7063 C   0  0  0  0  0  0  0  0  0  0  0  0
    5.8557    0.9957   20.3975 C   0  0  0  0  0  0  0  0  0  0  0  0
    7.6598   -1.5423   21.7903 C   0  0  0  0  0  0  0  0  0  0  0  0
    8.9842   -1.7494   22.5275 C   0  0  2  0  0  0  0  0  0  0  0  0
    8.8818   -2.7319   23.6887 C   0  0  0  0  0  0  0  0  0  0  0  0
   10.1374   -2.8827   24.3234 O   0  0  0  0  0  0  0  0  0  0  0  0
   10.7496   -4.1620   24.1733 C   0  0  0  0  0  0  0  0  0  0  0  0
   10.1506   -5.1571   25.1663 C   0  0  0  0  0  0  0  0  0  0  0  0
   12.2359   -3.9578   24.3972 C   0  0  0  0  0  0  0  0  0  0  0  0
   10.9927   -0.1567   22.9223 C   0  0  0  0  0  0  0  0  0  0  0  0
   11.8988   -1.0987   22.4270 C   0  0  0  0  0  0  0  0  0  0  0  0
   13.2408   -0.7791   22.3663 C   0  0  0  0  0  0  0  0  0  0  0  0
   14.0868   -1.6679   21.8101 F   0  0  0  0  0  0  0  0  0  0  0  0
   13.7668    0.4176   22.8354 C   0  0  0  0  0  0  0  0  0  0  0  0
   12.8863    1.3118   23.4088 C   0  0  0  0  0  0  0  0  0  0  0  0
   11.5262    1.0169   23.4750 C   0  0  0  0  0  0  0  0  0  0  0  0
   10.6382    2.0241   24.1248 C   0  0  0  0  0  0  0  0  0  0  0  0
   10.9962    3.1770   24.3248 O   0  0  0  0  0  0  0  0  0  0  0  0
    6.2380    4.5484   22.6638 H   0  0  0  0  0  0  0  0  0  0  0  0
    7.3978    4.3930   21.3200 H   0  0  0  0  0  0  0  0  0  0  0  0
    7.5653    5.7020   22.5212 H   0  0  0  0  0  0  0  0  0  0  0  0
    8.6514    3.0607   22.6385 H   0  0  0  0  0  0  0  0  0  0  0  0
    9.1408    2.9258   26.0266 H   0  0  0  0  0  0  0  0  0  0  0  0
    7.7690    1.8752   25.7108 H   0  0  0  0  0  0  0  0  0  0  0  0
    7.8520    0.2083   24.1924 H   0  0  0  0  0  0  0  0  0  0  0  0
    9.2859   -0.4499   25.0108 H   0  0  0  0  0  0  0  0  0  0  0  0
    8.0804   -0.7871   18.5270 H   0  0  0  0  0  0  0  0  0  0  0  0
    4.7365    1.2167   17.1667 H   0  0  0  0  0  0  0  0  0  0  0  0
    3.3508    2.5789   18.6755 H   0  0  0  0  0  0  0  0  0  0  0  0
    2.7752    3.3188   20.9673 H   0  0  0  0  0  0  0  0  0  0  0  0
    4.1247    2.5480   22.9029 H   0  0  0  0  0  0  0  0  0  0  0  0
    6.0775    1.1099   22.5623 H   0  0  0  0  0  0  0  0  0  0  0  0
    6.8103   -1.4718   22.4926 H   0  0  0  0  0  0  0  0  0  0  0  0
    7.4334   -2.3280   21.0656 H   0  0  0  0  0  0  0  0  0  0  0  0
    9.6838   -2.1444   21.7857 H   0  0  0  0  0  0  0  0  0  0  0  0
    8.1770   -2.3466   24.4375 H   0  0  0  0  0  0  0  0  0  0  0  0
    8.4865   -3.7011   23.3385 H   0  0  0  0  0  0  0  0  0  0  0  0
   10.5828   -4.5266   23.1454 H   0  0  0  0  0  0  0  0  0  0  0  0
    9.0796   -5.3025   24.9839 H   0  0  0  0  0  0  0  0  0  0  0  0
   10.6480   -6.1326   25.0946 H   0  0  0  0  0  0  0  0  0  0  0  0
   10.2755   -4.7770   26.1870 H   0  0  0  0  0  0  0  0  0  0  0  0
   12.7863   -4.8946   24.2823 H   0  0  0  0  0  0  0  0  0  0  0  0
   12.6556   -3.2458   23.6853 H   0  0  0  0  0  0  0  0  0  0  0  0
   12.3991   -3.5686   25.4061 H   0  0  0  0  0  0  0  0  0  0  0  0
   11.5896   -2.0718   22.0588 H   0  0  0  0  0  0  0  0  0  0  0  0
   14.8298    0.6141   22.7380 H   0  0  0  0  0  0  0  0  0  0  0  0
   13.2308    2.2615   23.8013 H   0  0  0  0  0  0  0  0  0  0  0  0
  1  2  1  0
  2  3  1  0
  3  4  2  0
  3  5  1  0
  5  6  1  0
  6  7  1  0
  8  7  1  1
  8  9  1  0
  9 10  2  0
  9 11  1  0
 11 12  1  0
 12 13  2  0
 13 14  1  0
 14 15  2  0
 15 16  1  0
 16 17  2  0
 17 18  1  0
 18 19  2  0
 19 20  1  0
 20 21  2  0
 11 22  1  0
 22 23  1  0
 23 24  1  0
 24 25  1  0
 25 26  1  0
 26 27  1  0
 26 28  1  0
  8 29  1  0
 29 30  2  0
 30 31  1  0
 31 32  1  0
 31 33  2  0
 33 34  1  0
 34 35  2  0
 35 36  1  0
 36 37  2  0
 36  6  1  0
 23  8  1  0
 35 29  1  0
 21 12  1  0
 21 16  1  0
  1 38  1  0
  1 39  1  0
  1 40  1  0
  2 41  1  0
  5 42  1  0
  5 43  1  0
  7 44  1  0
  7 45  1  0
 13 46  1  0
 15 47  1  0
 17 48  1  0
 18 49  1  0
 19 50  1  0
 20 51  1  0
 22 52  1  0
 22 53  1  0
 23 54  1  6
 24 55  1  0
 24 56  1  0
 26 57  1  0
 27 58  1  0
 27 59  1  0
 27 60  1  0
 28 61  1  0
 28 62  1  0
 28 63  1  0
 30 64  1  0
 33 65  1  0
 34 66  1  0
M  END
$$$$
