
     RDKit          3D

 66 71  0  0  0  0  0  0  0  0999 V2000
   -7.0232    3.6223  -22.4636 C   0  0  0  0  0  0  0  0  0  0  0  0
   -7.7408    2.6366  -23.2378 N   0  0  0  0  0  0  0  0  0  0  0  0
   -7.4738    2.5141  -24.5534 C   0  0  0  0  0  0  0  0  0  0  0  0
   -6.7130    3.2526  -25.1629 O   0  0  0  0  0  0  0  0  0  0  0  0
   -8.1596    1.3740  -25.3238 C   0  0  0  0  0  0  0  0  0  0  0  0
   -8.9747    0.4590  -24.5566 N   0  0  0  0  0  0  0  0  0  0  0  0
   -8.4957   -0.8905  -24.2835 C   0  0  0  0  0  0  0  0  0  0  0  0
   -9.0706   -1.4332  -22.9407 C   0  0  2  0  0  0  0  0  0  0  0  0
   -8.4602   -0.5776  -21.7932 C   0  0  0  0  0  0  0  0  0  0  0  0
   -8.7289    0.5749  -21.5118 O   0  0  0  0  0  0  0  0  0  0  0  0
   -7.4897   -1.3169  -21.1627 N   0  0  0  0  0  0  0  0  0  0  0  0
   -6.6539   -0.7995  -20.1311 C   0  0  0  0  0  0  0  0  0  0  0  0
   -6.8727   -1.1711  -18.8267 C   0  0  0  0  0  0  0  0  0  0  0  0
   -6.0959   -0.8007  -17.7794 N   0  0  0  0  0  0  0  0  0  0  0  0
   -5.0662   -0.0301  -18.0275 C   0  0  0  0  0  0  0  0  0  0  0  0
   -4.7368    0.4533  -19.3246 C   0  0  0  0  0  0  0  0  0  0  0  0
   -3.6467    1.3393  -19.5316 C   0  0  0  0  0  0  0  0  0  0  0  0
   -3.3220    1.7552  -20.7915 C   0  0  0  0  0  0  0  0  0  0  0  0
   -4.0586    1.2911  -21.9043 C   0  0  0  0  0  0  0  0  0  0  0  0
   -5.1375    0.4577  -21.7293 C   0  0  0  0  0  0  0  0  0  0  0  0
   -5.5251    0.0340  -20.4255 C   0  0  0  0  0  0  0  0  0  0  0  0
   -7.2261   -2.5852  -21.8200 C   0  0  0  0  0  0  0  0  0  0  0  0
   -8.5508   -2.8393  -22.5416 C   0  0  2  0  0  0  0  0  0  0  0  0
   -8.5081   -3.8643  -23.6830 C   0  0  0  0  0  0  0  0  0  0  0  0
   -8.2526   -5.2216  -23.2476 N   0  0  0  0  0  0  0  0  0  0  0  0
   -6.9734   -5.6947  -23.1595 C   0  0  0  0  0  0  0  0  0  0  0  0
   -6.6873   -6.8964  -22.4706 C   0  0  0  0  0  0  0  0  0  0  0  0
   -5.4635   -7.3732  -22.3481 N   0  0  0  0  0  0  0  0  0  0  0  0
   -4.4796   -6.6723  -22.9408 C   0  0  0  0  0  0  0  0  0  0  0  0
   -4.7639   -5.5178  -23.6519 C   0  0  0  0  0  0  0  0  0  0  0  0
   -5.9997   -5.0118  -23.7565 N   0  0  0  0  0  0  0  0  0  0  0  0
  -10.5808   -1.3166  -23.0469 C   0  0  0  0  0  0  0  0  0  0  0  0
  -11.4740   -2.2980  -22.5941 C   0  0  0  0  0  0  0  0  0  0  0  0
  -12.8308   -2.0281  -22.5590 C   0  0  0  0  0  0  0  0  0  0  0  0
  -13.9081   -3.1893  -21.8343 Cl  0  0  0  0  0  0  0  0  0  0  0  0
  -13.3583   -0.8345  -23.0515 C   0  0  0  0  0  0  0  0  0  0  0  0
  -12.4916    0.1029  -23.5744 C   0  0  0  0  0  0  0  0  0  0  0  0
  -11.1209   -0.1461  -23.5975 C   0  0  0  0  0  0  0  0  0  0  0  0
  -10.2392    0.8749  -24.2428 C   0  0  0  0  0  0  0  0  0  0  0  0
  -10.6279    2.0106  -24.4739 O   0  0  0  0  0  0  0  0  0  0  0  0
   -7.1586    3.3882  -21.4034 H   0  0  0  0  0  0  0  0  0  0  0  0
   -5.9633    3.5714  -22.7279 H   0  0  0  0  0  0  0  0  0  0  0  0
   -7.3691    4.6444  -22.6584 H   0  0  0  0  0  0  0  0  0  0  0  0
   -8.2665    1.9314  -22.7302 H   0  0  0  0  0  0  0  0  0  0  0  0
   -8.7698    1.8363  -26.1098 H   0  0  0  0  0  0  0  0  0  0  0  0
   -7.3660    0.8097  -25.8261 H   0  0  0  0  0  0  0  0  0  0  0  0
   -7.4007   -0.8493  -24.2407 H   0  0  0  0  0  0  0  0  0  0  0  0
   -8.7817   -1.5553  -25.1109 H   0  0  0  0  0  0  0  0  0  0  0  0
   -7.7180   -1.8128  -18.5828 H   0  0  0  0  0  0  0  0  0  0  0  0
   -4.4401    0.2674  -17.1847 H   0  0  0  0  0  0  0  0  0  0  0  0
   -3.0939    1.6908  -18.6635 H   0  0  0  0  0  0  0  0  0  0  0  0
   -2.4982    2.4461  -20.9479 H   0  0  0  0  0  0  0  0  0  0  0  0
   -3.7863    1.6201  -22.9048 H   0  0  0  0  0  0  0  0  0  0  0  0
   -5.7009    0.1239  -22.5974 H   0  0  0  0  0  0  0  0  0  0  0  0
   -6.9915   -3.3511  -21.0806 H   0  0  0  0  0  0  0  0  0  0  0  0
   -6.3844   -2.5265  -22.5282 H   0  0  0  0  0  0  0  0  0  0  0  0
   -9.2218   -3.1863  -21.7458 H   0  0  0  0  0  0  0  0  0  0  0  0
   -9.4562   -3.8244  -24.2367 H   0  0  0  0  0  0  0  0  0  0  0  0
   -7.7025   -3.5961  -24.3760 H   0  0  0  0  0  0  0  0  0  0  0  0
   -8.9441   -5.6851  -22.6749 H   0  0  0  0  0  0  0  0  0  0  0  0
   -7.5018   -7.4613  -22.0278 H   0  0  0  0  0  0  0  0  0  0  0  0
   -3.4568   -7.0402  -22.8271 H   0  0  0  0  0  0  0  0  0  0  0  0
   -3.9834   -4.9558  -24.1635 H   0  0  0  0  0  0  0  0  0  0  0  0
  -11.1357   -3.2653  -22.2395 H   0  0  0  0  0  0  0  0  0  0  0  0
  -14.4261   -0.6492  -23.0108 H   0  0  0  0  0  0  0  0  0  0  0  0
  -12.8510    1.0403  -23.9861 H   0  0  0  0  0  0  0  0  0  0  0  0
  1  2  1  0
  2  3  1  0
  3  4  2  0
  3  5  1  0
  5  6  1  0
  6  7  1  0
  8  7  1  6
  8  9  1  0
  9 10  2  0
  9 11  1  0
 11 12  1  0
 12 13  2  0
 13 14  1  0
 14 15  2  0
 15 16  1  0
 16 17  2  0
 17 18  1  0
 18 19  2  0
 19 20  1  0
 20 21  2  0
 11 22  1  0
 22 23  1  0
 23 24  1  0
 24 25  1  0
 25 26  1  0
 26 27  2  0
 27 28  1  0
 28 29  2  0
 29 30  1  0
 30 31  2  0
  8 32  1  0
 32 33  2  0
 33 34  1  0
 34 35  1  0
 34 36  2  0
 36 37  1  0
 37 38  2  0
 38 39  1  0
 39 40  2  0
 39  6  1  0
 23  8  1  0
 31 26  1  0
 38 32  1  0
 21 12  1  0
 21 16  1  0
  1 41  1  0
  1 42  1  0
  1 43  1  0
  2 44  1  0
  5 45  1  0
  5 46  1  0
  7 47  1  0
  7 48  1  0
 13 49  1  0
 15 50  1  0
 17 51  1  0
 18 52  1  0
 19 53  1  0
 20 54  1  0
 22 55  1  0
 22 56  1  0
 23 57  1  1
 24 58  1  0
 24 59  1  0
 25 60  1  0
 27 61  1  0
 29 62  1  0
 30 63  1  0
 33 64  1  0
 36 65  1  0
 37 66  1  0
M  END
