
     RDKit          3D

 66 71  0  0  0  0  0  0  0  0999 V2000
    7.2935    4.6440   22.3575 C   0  0  0  0  0  0  0  0  0  0  0  0
    8.0552    3.6913   23.1309 N   0  0  0  0  0  0  0  0  0  0  0  0
    7.8204    3.5828   24.4538 C   0  0  0  0  0  0  0  0  0  0  0  0
    7.0526    4.3098   25.0685 O   0  0  0  0  0  0  0  0  0  0  0  0
    8.5545    2.4748   25.2265 C   0  0  0  0  0  0  0  0  0  0  0  0
    9.3781    1.5704   24.4558 N   0  0  0  0  0  0  0  0  0  0  0  0
    8.9313    0.2039   24.2145 C   0  0  0  0  0  0  0  0  0  0  0  0
    9.4918   -0.3444   22.8679 C   0  0  2  0  0  0  0  0  0  0  0  0
    8.8328    0.4752   21.7210 C   0  0  0  0  0  0  0  0  0  0  0  0
    9.0629    1.6300   21.4158 O   0  0  0  0  0  0  0  0  0  0  0  0
    7.8699   -0.3008   21.1239 N   0  0  0  0  0  0  0  0  0  0  0  0
    6.9977    0.1764   20.1032 C   0  0  0  0  0  0  0  0  0  0  0  0
    7.1984   -0.2101   18.8002 C   0  0  0  0  0  0  0  0  0  0  0  0
    6.3889    0.1216   17.7647 N   0  0  0  0  0  0  0  0  0  0  0  0
    5.3436    0.8673   18.0236 C   0  0  0  0  0  0  0  0  0  0  0  0
    5.0291    1.3624   19.3200 C   0  0  0  0  0  0  0  0  0  0  0  0
    3.9193    2.2211   19.5372 C   0  0  0  0  0  0  0  0  0  0  0  0
    3.6106    2.6483   20.7974 C   0  0  0  0  0  0  0  0  0  0  0  0
    4.3840    2.2229   21.9007 C   0  0  0  0  0  0  0  0  0  0  0  0
    5.4818    1.4169   21.7148 C   0  0  0  0  0  0  0  0  0  0  0  0
    5.8526    0.9830   20.4095 C   0  0  0  0  0  0  0  0  0  0  0  0
    7.6564   -1.5651   21.8066 C   0  0  0  0  0  0  0  0  0  0  0  0
    9.0031   -1.7707   22.5025 C   0  0  2  0  0  0  0  0  0  0  0  0
    9.0140   -2.7778   23.6605 C   0  0  0  0  0  0  0  0  0  0  0  0
    8.7872   -4.1485   23.2521 N   0  0  0  0  0  0  0  0  0  0  0  0
    7.5202   -4.6582   23.1998 C   0  0  0  0  0  0  0  0  0  0  0  0
    7.2530   -5.8784   22.5363 C   0  0  0  0  0  0  0  0  0  0  0  0
    6.0406   -6.3909   22.4485 N   0  0  0  0  0  0  0  0  0  0  0  0
    5.0506   -5.7079   23.0519 C   0  0  0  0  0  0  0  0  0  0  0  0
    5.3178   -4.5346   23.7384 C   0  0  0  0  0  0  0  0  0  0  0  0
    6.5409   -3.9930   23.8076 N   0  0  0  0  0  0  0  0  0  0  0  0
   11.0001   -0.1843   22.9387 C   0  0  0  0  0  0  0  0  0  0  0  0
   11.9104   -1.1478   22.4816 C   0  0  0  0  0  0  0  0  0  0  0  0
   13.2580   -0.8411   22.4122 C   0  0  0  0  0  0  0  0  0  0  0  0
   14.3514   -1.9836   21.6819 Cl  0  0  0  0  0  0  0  0  0  0  0  0
   13.7624    0.3745   22.8741 C   0  0  0  0  0  0  0  0  0  0  0  0
   12.8813    1.2959   23.4014 C   0  0  0  0  0  0  0  0  0  0  0  0
   11.5190    1.0095   23.4588 C   0  0  0  0  0  0  0  0  0  0  0  0
   10.6233    2.0160   24.1075 C   0  0  0  0  0  0  0  0  0  0  0  0
   10.9849    3.1656   24.3122 O   0  0  0  0  0  0  0  0  0  0  0  0
    7.4123    4.3966   21.2983 H   0  0  0  0  0  0  0  0  0  0  0  0
    6.2415    4.5681   22.6460 H   0  0  0  0  0  0  0  0  0  0  0  0
    7.6148    5.6784   22.5286 H   0  0  0  0  0  0  0  0  0  0  0  0
    8.5893    2.9928   22.6228 H   0  0  0  0  0  0  0  0  0  0  0  0
    9.1685    2.9666   25.9915 H   0  0  0  0  0  0  0  0  0  0  0  0
    7.7882    1.8970   25.7551 H   0  0  0  0  0  0  0  0  0  0  0  0
    7.8349    0.2141   24.1954 H   0  0  0  0  0  0  0  0  0  0  0  0
    9.2537   -0.4392   25.0457 H   0  0  0  0  0  0  0  0  0  0  0  0
    8.0558   -0.8320   18.5476 H   0  0  0  0  0  0  0  0  0  0  0  0
    4.6912    1.1336   17.1903 H   0  0  0  0  0  0  0  0  0  0  0  0
    3.3381    2.5430   18.6763 H   0  0  0  0  0  0  0  0  0  0  0  0
    2.7714    3.3185   20.9612 H   0  0  0  0  0  0  0  0  0  0  0  0
    4.1244    2.5604   22.9017 H   0  0  0  0  0  0  0  0  0  0  0  0
    6.0731    1.1130   22.5753 H   0  0  0  0  0  0  0  0  0  0  0  0
    7.4273   -2.3491   21.0847 H   0  0  0  0  0  0  0  0  0  0  0  0
    6.8290   -1.5182   22.5323 H   0  0  0  0  0  0  0  0  0  0  0  0
    9.6660   -2.1118   21.6975 H   0  0  0  0  0  0  0  0  0  0  0  0
    9.9724   -2.7026   24.1923 H   0  0  0  0  0  0  0  0  0  0  0  0
    8.2164   -2.5208   24.3669 H   0  0  0  0  0  0  0  0  0  0  0  0
    9.4788   -4.6019   22.6715 H   0  0  0  0  0  0  0  0  0  0  0  0
    8.0731   -6.4277   22.0844 H   0  0  0  0  0  0  0  0  0  0  0  0
    4.0363   -6.1058   22.9667 H   0  0  0  0  0  0  0  0  0  0  0  0
    4.5332   -3.9862   24.2583 H   0  0  0  0  0  0  0  0  0  0  0  0
   11.5917   -2.1298   22.1498 H   0  0  0  0  0  0  0  0  0  0  0  0
   14.8234    0.5886   22.8068 H   0  0  0  0  0  0  0  0  0  0  0  0
   13.2232    2.2495   23.7903 H   0  0  0  0  0  0  0  0  0  0  0  0
  1  2  1  0
  2  3  1  0
  3  4  2  0
  3  5  1  0
  5  6  1  0
  6  7  1  0
  8  7  1  1
  8  9  1  0
  9 10  2  0
  9 11  1  0
 11 12  1  0
 12 13  2  0
 13 14  1  0
 14 15  2  0
 15 16  1  0
 16 17  2  0
 17 18  1  0
 18 19  2  0
 19 20  1  0
 20 21  2  0
 11 22  1  0
 22 23  1  0
 23 24  1  0
 24 25  1  0
 25 26  1  0
 26 27  2  0
 27 28  1  0
 28 29  2  0
 29 30  1  0
 30 31  2  0
  8 32  1  0
 32 33  2  0
 33 34  1  0
 34 35  1  0
 34 36  2  0
 36 37  1  0
 37 38  2  0
 38 39  1  0
 39 40  2  0
 39  6  1  0
 23  8  1  0
 31 26  1  0
 38 32  1  0
 21 12  1  0
 21 16  1  0
  1 41  1  0
  1 42  1  0
  1 43  1  0
  2 44  1  0
  5 45  1  0
  5 46  1  0
  7 47  1  0
  7 48  1  0
 13 49  1  0
 15 50  1  0
 17 51  1  0
 18 52  1  0
 19 53  1  0
 20 54  1  0
 22 55  1  0
 22 56  1  0
 23 57  1  6
 24 58  1  0
 24 59  1  0
 25 60  1  0
 27 61  1  0
 29 62  1  0
 30 63  1  0
 33 64  1  0
 36 65  1  0
 37 66  1  0
M  END
$$$$
