
     RDKit          3D

 66 71  0  0  0  0  0  0  0  0999 V2000
    5.8335    3.0898   27.3725 C   0  0  0  0  0  0  0  0  0  0  0  0
    5.9470    3.0259   25.9289 N   0  0  0  0  0  0  0  0  0  0  0  0
    6.6689    3.9849   25.2807 C   0  0  0  0  0  0  0  0  0  0  0  0
    7.1831    4.9073   25.8874 O   0  0  0  0  0  0  0  0  0  0  0  0
    6.7892    3.8052   23.7578 C   0  0  0  0  0  0  0  0  0  0  0  0
    7.8878    2.9438   23.3481 N   0  0  0  0  0  0  0  0  0  0  0  0
    7.7977    1.5081   23.5615 C   0  0  0  0  0  0  0  0  0  0  0  0
    8.4821    0.7152   22.4124 C   0  0  2  0  0  0  0  0  0  0  0  0
    7.6814    0.9807   21.1192 C   0  0  0  0  0  0  0  0  0  0  0  0
    7.6519    2.0012   20.4691 O   0  0  0  0  0  0  0  0  0  0  0  0
    6.9478   -0.1481   20.8145 N   0  0  0  0  0  0  0  0  0  0  0  0
    5.9161   -0.0936   19.8504 C   0  0  0  0  0  0  0  0  0  0  0  0
    6.0608   -0.7706   18.6691 C   0  0  0  0  0  0  0  0  0  0  0  0
    5.2146   -0.6642   17.6186 N   0  0  0  0  0  0  0  0  0  0  0  0
    4.1631    0.1091   17.7599 C   0  0  0  0  0  0  0  0  0  0  0  0
    3.8405    0.7877   18.9690 C   0  0  0  0  0  0  0  0  0  0  0  0
    2.6630    1.5713   19.0981 C   0  0  0  0  0  0  0  0  0  0  0  0
    2.3286    2.1412   20.2957 C   0  0  0  0  0  0  0  0  0  0  0  0
    3.1747    1.9787   21.4153 C   0  0  0  0  0  0  0  0  0  0  0  0
    4.3432    1.2661   21.3041 C   0  0  0  0  0  0  0  0  0  0  0  0
    4.7191    0.6641   20.0674 C   0  0  0  0  0  0  0  0  0  0  0  0
    7.1282   -1.2506   21.7360 C   0  0  0  0  0  0  0  0  0  0  0  0
    8.3652   -0.8251   22.5307 C   0  0  2  0  0  0  0  0  0  0  0  0
    8.5276   -1.4393   23.9283 C   0  0  0  0  0  0  0  0  0  0  0  0
    7.3627   -1.4136   24.7853 N   0  0  0  0  0  0  0  0  0  0  0  0
    6.4593   -2.4186   24.9313 C   0  0  0  0  0  0  0  0  0  0  0  0
    6.4754   -3.5857   24.1431 C   0  0  0  0  0  0  0  0  0  0  0  0
    5.4862   -4.5110   24.4042 C   0  0  0  0  0  0  0  0  0  0  0  0
    4.5419   -4.3373   25.3367 N   0  0  0  0  0  0  0  0  0  0  0  0
    4.6211   -3.1943   26.0064 C   0  0  0  0  0  0  0  0  0  0  0  0
    5.5186   -2.2268   25.8669 N   0  0  0  0  0  0  0  0  0  0  0  0
    9.9165    1.2152   22.3205 C   0  0  0  0  0  0  0  0  0  0  0  0
   11.0210    0.3887   22.0338 C   0  0  0  0  0  0  0  0  0  0  0  0
   12.2900    0.9278   21.9642 C   0  0  0  0  0  0  0  0  0  0  0  0
   13.6566   -0.1096   21.6702 Cl  0  0  0  0  0  0  0  0  0  0  0  0
   12.5178    2.2959   22.0953 C   0  0  0  0  0  0  0  0  0  0  0  0
   11.4364    3.1201   22.3446 C   0  0  0  0  0  0  0  0  0  0  0  0
   10.1559    2.5881   22.5140 C   0  0  0  0  0  0  0  0  0  0  0  0
    9.0727    3.5298   22.9850 C   0  0  0  0  0  0  0  0  0  0  0  0
    9.2444    4.7394   23.0506 O   0  0  0  0  0  0  0  0  0  0  0  0
    5.1774    2.2881   27.7180 H   0  0  0  0  0  0  0  0  0  0  0  0
    6.8215    2.9725   27.8286 H   0  0  0  0  0  0  0  0  0  0  0  0
    5.4315    4.0568   27.6923 H   0  0  0  0  0  0  0  0  0  0  0  0
    5.4020    2.3513   25.4153 H   0  0  0  0  0  0  0  0  0  0  0  0
    5.8505    3.4001   23.3523 H   0  0  0  0  0  0  0  0  0  0  0  0
    6.9827    4.7876   23.3207 H   0  0  0  0  0  0  0  0  0  0  0  0
    8.2658    1.2535   24.5198 H   0  0  0  0  0  0  0  0  0  0  0  0
    6.7439    1.2313   23.6192 H   0  0  0  0  0  0  0  0  0  0  0  0
    6.9166   -1.4280   18.5194 H   0  0  0  0  0  0  0  0  0  0  0  0
    3.4846    0.2031   16.9077 H   0  0  0  0  0  0  0  0  0  0  0  0
    2.0421    1.7224   18.2219 H   0  0  0  0  0  0  0  0  0  0  0  0
    1.4149    2.7229   20.3934 H   0  0  0  0  0  0  0  0  0  0  0  0
    2.9055    2.4353   22.3642 H   0  0  0  0  0  0  0  0  0  0  0  0
    4.9930    1.1619   22.1690 H   0  0  0  0  0  0  0  0  0  0  0  0
    6.2330   -1.4026   22.3483 H   0  0  0  0  0  0  0  0  0  0  0  0
    7.3144   -2.1802   21.1896 H   0  0  0  0  0  0  0  0  0  0  0  0
    9.2074   -1.1852   21.9408 H   0  0  0  0  0  0  0  0  0  0  0  0
    8.8460   -2.4820   23.8313 H   0  0  0  0  0  0  0  0  0  0  0  0
    9.3412   -0.9113   24.4415 H   0  0  0  0  0  0  0  0  0  0  0  0
    7.2077   -0.6294   25.4036 H   0  0  0  0  0  0  0  0  0  0  0  0
    7.2099   -3.7478   23.3589 H   0  0  0  0  0  0  0  0  0  0  0  0
    5.4367   -5.4456   23.8443 H   0  0  0  0  0  0  0  0  0  0  0  0
    3.8564   -3.0237   26.7665 H   0  0  0  0  0  0  0  0  0  0  0  0
   10.9407   -0.6819   21.8558 H   0  0  0  0  0  0  0  0  0  0  0  0
   13.5251    2.6901   22.0088 H   0  0  0  0  0  0  0  0  0  0  0  0
   11.5667    4.1915   22.4359 H   0  0  0  0  0  0  0  0  0  0  0  0
  1  2  1  0
  2  3  1  0
  3  4  2  0
  3  5  1  0
  5  6  1  0
  6  7  1  0
  8  7  1  1
  8  9  1  0
  9 10  2  0
  9 11  1  0
 11 12  1  0
 12 13  2  0
 13 14  1  0
 14 15  2  0
 15 16  1  0
 16 17  2  0
 17 18  1  0
 18 19  2  0
 19 20  1  0
 20 21  2  0
 11 22  1  0
 22 23  1  0
 23 24  1  0
 24 25  1  0
 25 26  1  0
 26 27  2  0
 27 28  1  0
 28 29  2  0
 29 30  1  0
 30 31  2  0
  8 32  1  0
 32 33  2  0
 33 34  1  0
 34 35  1  0
 34 36  2  0
 36 37  1  0
 37 38  2  0
 38 39  1  0
 39 40  2  0
 39  6  1  0
 23  8  1  0
 31 26  1  0
 38 32  1  0
 21 12  1  0
 21 16  1  0
  1 41  1  0
  1 42  1  0
  1 43  1  0
  2 44  1  0
  5 45  1  0
  5 46  1  0
  7 47  1  0
  7 48  1  0
 13 49  1  0
 15 50  1  0
 17 51  1  0
 18 52  1  0
 19 53  1  0
 20 54  1  0
 22 55  1  0
 22 56  1  0
 23 57  1  6
 24 58  1  0
 24 59  1  0
 25 60  1  0
 27 61  1  0
 28 62  1  0
 30 63  1  0
 33 64  1  0
 36 65  1  0
 37 66  1  0
M  END
$$$$
