
     RDKit          3D

 61 66  0  0  0  0  0  0  0  0999 V2000
   -7.3839   -4.4713  -25.6355 C   0  0  0  0  0  0  0  0  0  0  0  0
   -7.4013   -3.6314  -24.5079 O   0  0  0  0  0  0  0  0  0  0  0  0
   -8.4850   -3.8947  -23.6374 C   0  0  0  0  0  0  0  0  0  0  0  0
   -8.5386   -2.8269  -22.5549 C   0  0  1  0  0  0  0  0  0  0  0  0
   -7.2186   -2.5765  -21.8214 C   0  0  0  0  0  0  0  0  0  0  0  0
   -7.4950   -1.3104  -21.1593 N   0  0  0  0  0  0  0  0  0  0  0  0
   -6.6505   -0.7993  -20.1314 C   0  0  0  0  0  0  0  0  0  0  0  0
   -6.8710   -1.1714  -18.8266 C   0  0  0  0  0  0  0  0  0  0  0  0
   -6.0915   -0.8073  -17.7772 N   0  0  0  0  0  0  0  0  0  0  0  0
   -5.0664   -0.0324  -18.0310 C   0  0  0  0  0  0  0  0  0  0  0  0
   -4.7329    0.4474  -19.3274 C   0  0  0  0  0  0  0  0  0  0  0  0
   -3.6559    1.3500  -19.5251 C   0  0  0  0  0  0  0  0  0  0  0  0
   -3.3078    1.7380  -20.7853 C   0  0  0  0  0  0  0  0  0  0  0  0
   -4.0133    1.2407  -21.9055 C   0  0  0  0  0  0  0  0  0  0  0  0
   -5.1181    0.4435  -21.7356 C   0  0  0  0  0  0  0  0  0  0  0  0
   -5.5178    0.0316  -20.4308 C   0  0  0  0  0  0  0  0  0  0  0  0
   -8.4466   -0.5533  -21.8189 C   0  0  0  0  0  0  0  0  0  0  0  0
   -8.7070    0.6026  -21.5633 O   0  0  0  0  0  0  0  0  0  0  0  0
   -9.0621   -1.4218  -22.9606 C   0  0  1  0  0  0  0  0  0  0  0  0
   -8.5012   -0.8931  -24.3085 C   0  0  0  0  0  0  0  0  0  0  0  0
   -8.9934    0.4486  -24.5835 N   0  0  0  0  0  0  0  0  0  0  0  0
   -8.1468    1.3506  -25.3373 C   0  0  0  0  0  0  0  0  0  0  0  0
   -7.2912    2.2432  -24.4768 C   0  0  0  0  0  0  0  0  0  0  0  0
   -6.0221    2.6861  -24.6822 C   0  0  0  0  0  0  0  0  0  0  0  0
   -5.7507    3.5999  -23.6828 N   0  0  0  0  0  0  0  0  0  0  0  0
   -6.8123    3.6927  -22.8698 C   0  0  0  0  0  0  0  0  0  0  0  0
   -7.7665    2.8733  -23.3352 N   0  0  0  0  0  0  0  0  0  0  0  0
  -10.2201    0.8930  -24.1916 C   0  0  0  0  0  0  0  0  0  0  0  0
  -10.5569    2.0695  -24.3077 O   0  0  0  0  0  0  0  0  0  0  0  0
  -11.1231   -0.1405  -23.6018 C   0  0  0  0  0  0  0  0  0  0  0  0
  -12.4936    0.1101  -23.5825 C   0  0  0  0  0  0  0  0  0  0  0  0
  -13.3598   -0.8252  -23.0566 C   0  0  0  0  0  0  0  0  0  0  0  0
  -12.8253   -2.0189  -22.5734 C   0  0  0  0  0  0  0  0  0  0  0  0
  -13.8851   -3.1883  -21.8409 Cl  0  0  0  0  0  0  0  0  0  0  0  0
  -11.4686   -2.2911  -22.6035 C   0  0  0  0  0  0  0  0  0  0  0  0
  -10.5760   -1.3123  -23.0596 C   0  0  0  0  0  0  0  0  0  0  0  0
   -6.5172   -4.1900  -26.2355 H   0  0  0  0  0  0  0  0  0  0  0  0
   -8.2873   -4.3489  -26.2546 H   0  0  0  0  0  0  0  0  0  0  0  0
   -7.2861   -5.5367  -25.3686 H   0  0  0  0  0  0  0  0  0  0  0  0
   -8.3805   -4.8966  -23.1818 H   0  0  0  0  0  0  0  0  0  0  0  0
   -9.4412   -3.8875  -24.1911 H   0  0  0  0  0  0  0  0  0  0  0  0
   -9.2220   -3.1748  -21.7717 H   0  0  0  0  0  0  0  0  0  0  0  0
   -6.9919   -3.3372  -21.0668 H   0  0  0  0  0  0  0  0  0  0  0  0
   -6.3662   -2.5002  -22.5162 H   0  0  0  0  0  0  0  0  0  0  0  0
   -7.7266   -1.8013  -18.5831 H   0  0  0  0  0  0  0  0  0  0  0  0
   -4.4310    0.2600  -17.1961 H   0  0  0  0  0  0  0  0  0  0  0  0
   -3.1153    1.7065  -18.6511 H   0  0  0  0  0  0  0  0  0  0  0  0
   -2.4831    2.4271  -20.9305 H   0  0  0  0  0  0  0  0  0  0  0  0
   -3.6682    1.4889  -22.9043 H   0  0  0  0  0  0  0  0  0  0  0  0
   -5.6967    0.1310  -22.6017 H   0  0  0  0  0  0  0  0  0  0  0  0
   -7.4087   -0.8597  -24.2779 H   0  0  0  0  0  0  0  0  0  0  0  0
   -8.7897   -1.5711  -25.1190 H   0  0  0  0  0  0  0  0  0  0  0  0
   -7.5103    0.7505  -26.0002 H   0  0  0  0  0  0  0  0  0  0  0  0
   -8.8064    1.9584  -25.9724 H   0  0  0  0  0  0  0  0  0  0  0  0
   -5.2597    2.4166  -25.4070 H   0  0  0  0  0  0  0  0  0  0  0  0
   -4.8672    4.0807  -23.5669 H   0  0  0  0  0  0  0  0  0  0  0  0
   -6.8680    4.3080  -21.9832 H   0  0  0  0  0  0  0  0  0  0  0  0
   -8.6091    2.6008  -22.8249 H   0  0  0  0  0  0  0  0  0  0  0  0
  -12.8605    1.0569  -23.9622 H   0  0  0  0  0  0  0  0  0  0  0  0
  -14.4300   -0.6526  -23.0118 H   0  0  0  0  0  0  0  0  0  0  0  0
  -11.1490   -3.2691  -22.2575 H   0  0  0  0  0  0  0  0  0  0  0  0
  1  2  1  0
  2  3  1  0
  3  4  1  0
  4  5  1  0
  5  6  1  0
  6  7  1  0
  7  8  2  0
  8  9  1  0
  9 10  2  0
 10 11  1  0
 11 12  2  0
 12 13  1  0
 13 14  2  0
 14 15  1  0
 15 16  2  0
  6 17  1  0
 17 18  2  0
 17 19  1  0
 19 20  1  6
 20 21  1  0
 21 22  1  0
 22 23  1  0
 23 24  2  0
 24 25  1  0
 25 26  2  0
 26 27  1  0
 21 28  1  0
 28 29  2  0
 28 30  1  0
 30 31  2  0
 31 32  1  0
 32 33  2  0
 33 34  1  0
 33 35  1  0
 35 36  2  0
 19  4  1  0
 27 23  1  0
 36 30  1  0
 16  7  1  0
 36 19  1  0
 16 11  1  0
  1 37  1  0
  1 38  1  0
  1 39  1  0
  3 40  1  0
  3 41  1  0
  4 42  1  1
  5 43  1  0
  5 44  1  0
  8 45  1  0
 10 46  1  0
 12 47  1  0
 13 48  1  0
 14 49  1  0
 15 50  1  0
 20 51  1  0
 20 52  1  0
 22 53  1  0
 22 54  1  0
 24 55  1  0
 25 56  1  0
 26 57  1  0
 27 58  1  0
 31 59  1  0
 32 60  1  0
 35 61  1  0
M  CHG  1  25   1
M  END
