
     RDKit          3D

 61 66  0  0  0  0  0  0  0  0999 V2000
   -7.0098    3.6344  -22.4891 C   0  0  0  0  0  0  0  0  0  0  0  0
   -7.7925    2.6965  -23.2720 N   0  0  0  0  0  0  0  0  0  0  0  0
   -7.5056    2.5278  -24.5796 C   0  0  0  0  0  0  0  0  0  0  0  0
   -6.7326    3.2476  -25.2030 O   0  0  0  0  0  0  0  0  0  0  0  0
   -8.1574    1.3585  -25.3184 C   0  0  0  0  0  0  0  0  0  0  0  0
   -8.9909    0.4721  -24.5494 N   0  0  0  0  0  0  0  0  0  0  0  0
   -8.5157   -0.8777  -24.2737 C   0  0  0  0  0  0  0  0  0  0  0  0
   -9.0766   -1.4194  -22.9340 C   0  0  2  0  0  0  0  0  0  0  0  0
   -8.4709   -0.5753  -21.7850 C   0  0  0  0  0  0  0  0  0  0  0  0
   -8.7706    0.5680  -21.5046 O   0  0  0  0  0  0  0  0  0  0  0  0
   -7.5018   -1.3160  -21.1494 N   0  0  0  0  0  0  0  0  0  0  0  0
   -6.6550   -0.7989  -20.1275 C   0  0  0  0  0  0  0  0  0  0  0  0
   -6.8889   -1.1489  -18.8207 C   0  0  0  0  0  0  0  0  0  0  0  0
   -6.1297   -0.7509  -17.7704 N   0  0  0  0  0  0  0  0  0  0  0  0
   -5.1047    0.0285  -18.0124 C   0  0  0  0  0  0  0  0  0  0  0  0
   -4.7548    0.4825  -19.3164 C   0  0  0  0  0  0  0  0  0  0  0  0
   -3.6671    1.3682  -19.5325 C   0  0  0  0  0  0  0  0  0  0  0  0
   -3.3263    1.7612  -20.7951 C   0  0  0  0  0  0  0  0  0  0  0  0
   -4.0596    1.2864  -21.9036 C   0  0  0  0  0  0  0  0  0  0  0  0
   -5.1412    0.4589  -21.7224 C   0  0  0  0  0  0  0  0  0  0  0  0
   -5.5305    0.0425  -20.4182 C   0  0  0  0  0  0  0  0  0  0  0  0
   -7.2382   -2.5779  -21.8165 C   0  0  0  0  0  0  0  0  0  0  0  0
   -8.5556   -2.8342  -22.5575 C   0  0  2  0  0  0  0  0  0  0  0  0
   -8.4200   -3.8706  -23.6807 C   0  0  0  0  0  0  0  0  0  0  0  0
   -9.7041   -4.2659  -24.2439 N   0  0  0  0  0  0  0  0  0  0  0  0
  -10.5004   -5.1496  -23.6700 N   0  0  0  0  0  0  0  0  0  0  0  0
  -11.5505   -5.1200  -24.4803 C   0  0  0  0  0  0  0  0  0  0  0  0
  -11.3956   -4.2531  -25.5014 N   0  0  0  0  0  0  0  0  0  0  0  0
  -10.2136   -3.7204  -25.3286 N   0  0  0  0  0  0  0  0  0  0  0  0
  -10.5831   -1.2775  -23.0318 C   0  0  0  0  0  0  0  0  0  0  0  0
  -11.4705   -2.2158  -22.5039 C   0  0  0  0  0  0  0  0  0  0  0  0
  -12.8288   -1.9568  -22.4725 C   0  0  0  0  0  0  0  0  0  0  0  0
  -13.8595   -3.1052  -21.6558 Cl  0  0  0  0  0  0  0  0  0  0  0  0
  -13.3703   -0.7919  -23.0147 C   0  0  0  0  0  0  0  0  0  0  0  0
  -12.5053    0.1188  -23.5921 C   0  0  0  0  0  0  0  0  0  0  0  0
  -11.1345   -0.1304  -23.6190 C   0  0  0  0  0  0  0  0  0  0  0  0
  -10.2613    0.8880  -24.2653 C   0  0  0  0  0  0  0  0  0  0  0  0
  -10.6493    2.0305  -24.4984 O   0  0  0  0  0  0  0  0  0  0  0  0
   -7.3088    4.6765  -22.6470 H   0  0  0  0  0  0  0  0  0  0  0  0
   -7.1408    3.3840  -21.4324 H   0  0  0  0  0  0  0  0  0  0  0  0
   -5.9485    3.5511  -22.7457 H   0  0  0  0  0  0  0  0  0  0  0  0
   -8.3484    2.0086  -22.7564 H   0  0  0  0  0  0  0  0  0  0  0  0
   -8.7338    1.7828  -26.1436 H   0  0  0  0  0  0  0  0  0  0  0  0
   -7.3411    0.7816  -25.7641 H   0  0  0  0  0  0  0  0  0  0  0  0
   -7.4207   -0.8592  -24.2216 H   0  0  0  0  0  0  0  0  0  0  0  0
   -8.8200   -1.5516  -25.0848 H   0  0  0  0  0  0  0  0  0  0  0  0
   -7.7564   -1.7572  -18.5676 H   0  0  0  0  0  0  0  0  0  0  0  0
   -4.5126    0.3687  -17.1589 H   0  0  0  0  0  0  0  0  0  0  0  0
   -3.1205    1.7314  -18.6681 H   0  0  0  0  0  0  0  0  0  0  0  0
   -2.5012    2.4493  -20.9552 H   0  0  0  0  0  0  0  0  0  0  0  0
   -3.7856    1.6054  -22.9045 H   0  0  0  0  0  0  0  0  0  0  0  0
   -5.7080    0.1188  -22.5845 H   0  0  0  0  0  0  0  0  0  0  0  0
   -6.9817   -3.3503  -21.0848 H   0  0  0  0  0  0  0  0  0  0  0  0
   -6.3995   -2.4954  -22.5284 H   0  0  0  0  0  0  0  0  0  0  0  0
   -9.2519   -3.2258  -21.8135 H   0  0  0  0  0  0  0  0  0  0  0  0
   -7.8244   -3.4741  -24.5025 H   0  0  0  0  0  0  0  0  0  0  0  0
   -7.9394   -4.7860  -23.3315 H   0  0  0  0  0  0  0  0  0  0  0  0
  -12.4490   -5.6975  -24.3207 H   0  0  0  0  0  0  0  0  0  0  0  0
  -11.1206   -3.1369  -22.0574 H   0  0  0  0  0  0  0  0  0  0  0  0
  -14.4381   -0.6038  -22.9355 H   0  0  0  0  0  0  0  0  0  0  0  0
  -12.8718    1.0533  -24.0089 H   0  0  0  0  0  0  0  0  0  0  0  0
  1  2  1  0
  2  3  1  0
  3  4  2  0
  3  5  1  0
  5  6  1  0
  6  7  1  0
  8  7  1  6
  8  9  1  0
  9 10  2  0
  9 11  1  0
 11 12  1  0
 12 13  2  0
 13 14  1  0
 14 15  2  0
 15 16  1  0
 16 17  2  0
 17 18  1  0
 18 19  2  0
 19 20  1  0
 20 21  2  0
 11 22  1  0
 22 23  1  0
 23 24  1  0
 24 25  1  0
 25 26  1  0
 26 27  2  0
 27 28  1  0
 28 29  2  0
  8 30  1  0
 30 31  2  0
 31 32  1  0
 32 33  1  0
 32 34  2  0
 34 35  1  0
 35 36  2  0
 36 37  1  0
 37 38  2  0
 37  6  1  0
 23  8  1  0
 29 25  1  0
 36 30  1  0
 21 12  1  0
 21 16  1  0
  1 39  1  0
  1 40  1  0
  1 41  1  0
  2 42  1  0
  5 43  1  0
  5 44  1  0
  7 45  1  0
  7 46  1  0
 13 47  1  0
 15 48  1  0
 17 49  1  0
 18 50  1  0
 19 51  1  0
 20 52  1  0
 22 53  1  0
 22 54  1  0
 23 55  1  1
 24 56  1  0
 24 57  1  0
 27 58  1  0
 31 59  1  0
 34 60  1  0
 35 61  1  0
M  END
