
     RDKit          3D

 44 47  0  0  0  0  0  0  0  0999 V2000
   -6.4541   -7.1166  -22.3733 C   0  0  0  0  0  0  0  0  0  0  0  0
   -7.7709   -6.7762  -23.0662 C   0  0  0  0  0  0  0  0  0  0  0  0
   -7.6738   -5.7154  -24.1798 C   0  0  1  0  0  0  0  0  0  0  0  0
   -6.9623   -6.1569  -25.4484 C   0  0  0  0  0  0  0  0  0  0  0  0
   -5.5630   -6.4351  -25.6188 C   0  0  0  0  0  0  0  0  0  0  0  0
   -5.2535   -6.8443  -26.8819 C   0  0  0  0  0  0  0  0  0  0  0  0
   -6.6369   -6.8285  -27.9058 S   0  0  0  0  0  0  0  0  0  0  0  0
   -7.6489   -6.2950  -26.6166 C   0  0  0  0  0  0  0  0  0  0  0  0
   -9.0960   -5.9770  -26.8294 C   0  0  0  0  0  0  0  0  0  0  0  0
   -9.7943   -6.0079  -25.4734 C   0  0  0  0  0  0  0  0  0  0  0  0
   -9.0275   -5.2075  -24.5077 N   0  0  0  0  0  0  0  0  0  0  0  0
   -9.3722   -3.8680  -24.4737 C   0  0  0  0  0  0  0  0  0  0  0  0
  -10.1935   -3.4236  -25.2562 O   0  0  0  0  0  0  0  0  0  0  0  0
   -8.7458   -2.9824  -23.3731 C   0  0  0  0  0  0  0  0  0  0  0  0
   -9.2503   -1.5752  -23.5290 C   0  0  0  0  0  0  0  0  0  0  0  0
   -8.4390   -0.5754  -24.0022 C   0  0  0  0  0  0  0  0  0  0  0  0
   -8.8688    0.6631  -24.3586 N   0  0  0  0  0  0  0  0  0  0  0  0
  -10.1546    0.9142  -24.2445 C   0  0  0  0  0  0  0  0  0  0  0  0
  -11.1101   -0.0052  -23.7209 C   0  0  0  0  0  0  0  0  0  0  0  0
  -12.5079    0.2599  -23.6721 C   0  0  0  0  0  0  0  0  0  0  0  0
  -13.3719   -0.6490  -23.1167 C   0  0  0  0  0  0  0  0  0  0  0  0
  -12.8912   -1.8920  -22.6499 C   0  0  0  0  0  0  0  0  0  0  0  0
  -11.5583   -2.2082  -22.7564 C   0  0  0  0  0  0  0  0  0  0  0  0
  -10.6341   -1.2781  -23.3146 C   0  0  0  0  0  0  0  0  0  0  0  0
   -5.7424   -7.6222  -23.0326 H   0  0  0  0  0  0  0  0  0  0  0  0
   -6.6426   -7.7872  -21.5268 H   0  0  0  0  0  0  0  0  0  0  0  0
   -5.9706   -6.2171  -21.9719 H   0  0  0  0  0  0  0  0  0  0  0  0
   -8.2416   -7.6818  -23.4663 H   0  0  0  0  0  0  0  0  0  0  0  0
   -8.4415   -6.3623  -22.3081 H   0  0  0  0  0  0  0  0  0  0  0  0
   -7.0943   -4.8847  -23.7610 H   0  0  0  0  0  0  0  0  0  0  0  0
   -4.8078   -6.3003  -24.8503 H   0  0  0  0  0  0  0  0  0  0  0  0
   -4.2963   -7.1699  -27.2655 H   0  0  0  0  0  0  0  0  0  0  0  0
   -9.5514   -6.6799  -27.5382 H   0  0  0  0  0  0  0  0  0  0  0  0
   -9.1803   -4.9613  -27.2488 H   0  0  0  0  0  0  0  0  0  0  0  0
  -10.7977   -5.5858  -25.5657 H   0  0  0  0  0  0  0  0  0  0  0  0
   -9.8872   -7.0397  -25.1076 H   0  0  0  0  0  0  0  0  0  0  0  0
   -9.0074   -3.3935  -22.3824 H   0  0  0  0  0  0  0  0  0  0  0  0
   -7.6501   -3.0006  -23.4577 H   0  0  0  0  0  0  0  0  0  0  0  0
   -7.3657   -0.7366  -24.1428 H   0  0  0  0  0  0  0  0  0  0  0  0
  -10.4812    1.9055  -24.5640 H   0  0  0  0  0  0  0  0  0  0  0  0
  -12.8680    1.2117  -24.0573 H   0  0  0  0  0  0  0  0  0  0  0  0
  -14.4331   -0.4167  -23.0488 H   0  0  0  0  0  0  0  0  0  0  0  0
  -13.5957   -2.5991  -22.2137 H   0  0  0  0  0  0  0  0  0  0  0  0
  -11.2146   -3.1793  -22.4143 H   0  0  0  0  0  0  0  0  0  0  0  0
  1  2  1  0
  2  3  1  0
  3  4  1  0
  4  5  1  0
  5  6  2  0
  6  7  1  0
  7  8  1  0
  8  9  1  0
  9 10  1  0
 10 11  1  0
 11 12  1  0
 12 13  2  0
 12 14  1  0
 14 15  1  0
 15 16  2  0
 16 17  1  0
 17 18  2  0
 18 19  1  0
 19 20  2  0
 20 21  1  0
 21 22  2  0
 22 23  1  0
 23 24  2  0
 11  3  1  0
 24 15  1  0
  8  4  2  0
 24 19  1  0
  1 25  1  0
  1 26  1  0
  1 27  1  0
  2 28  1  0
  2 29  1  0
  3 30  1  1
  5 31  1  0
  6 32  1  0
  9 33  1  0
  9 34  1  0
 10 35  1  0
 10 36  1  0
 14 37  1  0
 14 38  1  0
 16 39  1  0
 18 40  1  0
 20 41  1  0
 21 42  1  0
 22 43  1  0
 23 44  1  0
M  END
