LIG(A-306)
     RDKit          3D

 37 42  0  0  1  0  0  0  0  0999 V2000
    9.3075    1.1298   21.0081 O   0  0  0  0  0  0  0  0  0  0  0  0
    8.8015    0.1714   21.5776 C   0  0  0  0  0  0  0  0  0  0  0  0
    7.6280   -0.3674   21.1759 N   0  0  0  0  0  0  0  0  0  0  0  0
    6.8773    0.0774   20.0684 C   0  0  0  0  0  0  0  0  0  0  0  0
    5.7113    0.8718   20.3021 C   0  0  0  0  0  0  0  0  0  0  0  0
    5.2271    1.2030   21.5943 C   0  0  0  0  0  0  0  0  0  0  0  0
    4.1202    1.9902   21.7481 C   0  0  0  0  0  0  0  0  0  0  0  0
    3.4374    2.4781   20.6414 C   0  0  0  0  0  0  0  0  0  0  0  0
    3.8655    2.1869   19.3790 C   0  0  0  0  0  0  0  0  0  0  0  0
    5.0085    1.3765   19.1734 C   0  0  0  0  0  0  0  0  0  0  0  0
    5.5076    1.0554   17.8861 C   0  0  0  0  0  0  0  0  0  0  0  0
    6.5855    0.3118   17.6691 N   0  0  0  0  0  0  0  0  0  0  0  0
    7.2442   -0.1513   18.7407 C   0  0  0  0  0  0  0  0  0  0  0  0
    9.4496   -0.4339   22.8368 C   0  0  1  0  0  0  0  0  0  0  0  0
   10.9488   -0.1045   22.7947 C   0  0  0  0  0  0  0  0  0  0  0  0
   11.8169   -0.8763   22.0258 C   0  0  0  0  0  0  0  0  0  0  0  0
   13.1561   -0.5434   21.9676 C   0  0  0  0  0  0  0  0  0  0  0  0
   14.2087   -1.4690   20.9315 Cl  0  0  0  0  0  0  0  0  0  0  0  0
   13.6724    0.5263   22.6685 C   0  0  0  0  0  0  0  0  0  0  0  0
   12.8303    1.2872   23.4605 C   0  0  0  0  0  0  0  0  0  0  0  0
   11.4850    0.9644   23.5266 C   0  0  0  0  0  0  0  0  0  0  0  0
   10.7460    1.6980   24.4228 O   0  0  0  0  0  0  0  0  0  0  0  0
    9.3201    1.7055   24.1873 C   0  0  0  0  0  0  0  0  0  0  0  0
    8.7644    0.3103   24.0060 C   0  0  0  0  0  0  0  0  0  0  0  0
    9.2682   -1.9658   22.9493 C   0  0  0  0  0  0  0  0  0  0  0  0
    9.8092   -2.5692   24.2305 C   0  0  0  0  0  0  0  0  0  0  0  0
   10.5244   -1.9337   24.9936 O   0  0  0  0  0  0  0  0  0  0  0  0
    9.4991   -3.8474   24.5357 N   0  0  0  0  0  0  0  0  0  0  0  0
   10.3517   -4.6481   25.4200 C   0  0  0  0  0  0  0  0  0  0  0  0
    9.7215   -4.7408   26.7932 C   0  0  0  0  0  0  0  0  0  0  0  0
    8.3155   -5.1279   26.6317 N   0  0  0  0  0  0  0  0  0  0  0  0
    7.6196   -5.0423   25.4760 C   0  0  0  0  0  0  0  0  0  0  0  0
    8.2228   -4.4971   24.2035 C   0  0  2  0  0  0  0  0  0  0  0  0
    8.3877   -5.6158   23.1851 C   0  0  0  0  0  0  0  0  0  0  0  0
    6.3987   -5.4983   25.6459 N   0  0  0  0  0  0  0  0  0  0  0  0
    6.2942   -5.8970   26.9788 N   0  0  0  0  0  0  0  0  0  0  0  0
    7.4534   -5.6615   27.5320 C   0  0  0  0  0  0  0  0  0  0  0  0
  1  2  2  0
  2  3  1  0
 14  2  1  0
  3  4  1  0
  4  5  1  0
  4 13  2  0
  5  6  2  0
  5 10  1  0
  6  7  1  0
  7  8  2  0
  8  9  1  0
  9 10  2  0
 10 11  1  0
 11 12  2  0
 12 13  1  0
 14 15  1  0
 14 24  1  0
 14 25  1  1
 15 16  2  0
 15 21  1  0
 16 17  1  0
 17 18  1  0
 17 19  2  0
 19 20  1  0
 20 21  2  0
 21 22  1  0
 22 23  1  0
 23 24  1  0
 25 26  1  0
 26 27  2  0
 26 28  1  0
 28 29  1  0
 28 33  1  0
 29 30  1  0
 30 31  1  0
 31 32  1  0
 31 37  1  0
 32 33  1  0
 32 35  2  0
 33 34  1  6
 35 36  1  0
 36 37  2  0
M  END
$$$$
