
     RDKit          3D

 60 65  0  0  0  0  0  0  0  0999 V2000
   -5.1108    5.0234  -22.1923 C   0  0  0  0  0  0  0  0  0  0  0  0
   -5.8849    4.0369  -23.0045 C   0  0  0  0  0  0  0  0  0  0  0  0
   -7.0858    3.5069  -22.5355 C   0  0  0  0  0  0  0  0  0  0  0  0
   -7.8179    2.6497  -23.2377 N   0  0  0  0  0  0  0  0  0  0  0  0
   -7.3080    2.2603  -24.4021 C   0  0  0  0  0  0  0  0  0  0  0  0
   -8.1282    1.3692  -25.2939 C   0  0  0  0  0  0  0  0  0  0  0  0
   -8.9721    0.4486  -24.5724 N   0  0  0  0  0  0  0  0  0  0  0  0
   -8.4795   -0.8847  -24.2815 C   0  0  0  0  0  0  0  0  0  0  0  0
   -9.0611   -1.4331  -22.9482 C   0  0  2  0  0  0  0  0  0  0  0  0
   -8.5032   -0.6010  -21.7570 C   0  0  0  0  0  0  0  0  0  0  0  0
   -8.8683    0.4935  -21.4146 O   0  0  0  0  0  0  0  0  0  0  0  0
   -7.4908   -1.3327  -21.1500 N   0  0  0  0  0  0  0  0  0  0  0  0
   -6.6429   -0.8196  -20.1286 C   0  0  0  0  0  0  0  0  0  0  0  0
   -6.8568   -1.1904  -18.8241 C   0  0  0  0  0  0  0  0  0  0  0  0
   -6.0672   -0.8342  -17.7792 N   0  0  0  0  0  0  0  0  0  0  0  0
   -5.0424   -0.0624  -18.0370 C   0  0  0  0  0  0  0  0  0  0  0  0
   -4.7208    0.4265  -19.3340 C   0  0  0  0  0  0  0  0  0  0  0  0
   -3.6477    1.3315  -19.5376 C   0  0  0  0  0  0  0  0  0  0  0  0
   -3.3297    1.7512  -20.7965 C   0  0  0  0  0  0  0  0  0  0  0  0
   -4.0692    1.2938  -21.9154 C   0  0  0  0  0  0  0  0  0  0  0  0
   -5.1510    0.4660  -21.7368 C   0  0  0  0  0  0  0  0  0  0  0  0
   -5.5166    0.0199  -20.4336 C   0  0  0  0  0  0  0  0  0  0  0  0
   -7.2036   -2.5810  -21.8292 C   0  0  0  0  0  0  0  0  0  0  0  0
   -8.5218   -2.8364  -22.5731 C   0  0  2  0  0  0  0  0  0  0  0  0
   -8.4252   -3.8457  -23.7063 C   0  0  0  0  0  0  0  0  0  0  0  0
  -10.5753   -1.3307  -23.0787 C   0  0  0  0  0  0  0  0  0  0  0  0
  -11.4793   -2.3059  -22.6289 C   0  0  0  0  0  0  0  0  0  0  0  0
  -12.8329   -2.0180  -22.6268 C   0  0  0  0  0  0  0  0  0  0  0  0
  -13.6888   -2.9300  -22.1345 F   0  0  0  0  0  0  0  0  0  0  0  0
  -13.3635   -0.8173  -23.0905 C   0  0  0  0  0  0  0  0  0  0  0  0
  -12.4817    0.1113  -23.6005 C   0  0  0  0  0  0  0  0  0  0  0  0
  -11.1157   -0.1603  -23.6321 C   0  0  0  0  0  0  0  0  0  0  0  0
  -10.2351    0.8652  -24.2655 C   0  0  0  0  0  0  0  0  0  0  0  0
  -10.6337    2.0039  -24.4862 O   0  0  0  0  0  0  0  0  0  0  0  0
   -6.0774    2.7337  -24.8389 C   0  0  0  0  0  0  0  0  0  0  0  0
   -5.3693    3.6372  -24.1726 N   0  0  0  0  0  0  0  0  0  0  0  0
   -5.6377    5.9791  -22.0979 H   0  0  0  0  0  0  0  0  0  0  0  0
   -4.1319    5.1807  -22.6469 H   0  0  0  0  0  0  0  0  0  0  0  0
   -4.9837    4.6234  -21.1853 H   0  0  0  0  0  0  0  0  0  0  0  0
   -7.4628    3.8045  -21.5591 H   0  0  0  0  0  0  0  0  0  0  0  0
   -7.4640    0.8250  -25.9747 H   0  0  0  0  0  0  0  0  0  0  0  0
   -8.7888    1.9991  -25.8946 H   0  0  0  0  0  0  0  0  0  0  0  0
   -7.3851   -0.8433  -24.2398 H   0  0  0  0  0  0  0  0  0  0  0  0
   -8.7685   -1.5719  -25.0886 H   0  0  0  0  0  0  0  0  0  0  0  0
   -7.7182   -1.8110  -18.5766 H   0  0  0  0  0  0  0  0  0  0  0  0
   -4.3949    0.2178  -17.2046 H   0  0  0  0  0  0  0  0  0  0  0  0
   -3.0934    1.6749  -18.6671 H   0  0  0  0  0  0  0  0  0  0  0  0
   -2.5043    2.4419  -20.9396 H   0  0  0  0  0  0  0  0  0  0  0  0
   -3.7779    1.6042  -22.9140 H   0  0  0  0  0  0  0  0  0  0  0  0
   -5.7331    0.1450  -22.5981 H   0  0  0  0  0  0  0  0  0  0  0  0
   -6.3407   -2.4879  -22.5158 H   0  0  0  0  0  0  0  0  0  0  0  0
   -6.9633   -3.3574  -21.0937 H   0  0  0  0  0  0  0  0  0  0  0  0
   -9.2053   -3.2075  -21.7986 H   0  0  0  0  0  0  0  0  0  0  0  0
   -8.1362   -4.8382  -23.3435 H   0  0  0  0  0  0  0  0  0  0  0  0
   -9.3886   -3.9290  -24.2187 H   0  0  0  0  0  0  0  0  0  0  0  0
   -7.6772   -3.5307  -24.4430 H   0  0  0  0  0  0  0  0  0  0  0  0
  -11.1770   -3.2951  -22.2906 H   0  0  0  0  0  0  0  0  0  0  0  0
  -14.4347   -0.6481  -23.0448 H   0  0  0  0  0  0  0  0  0  0  0  0
  -12.8159    1.0739  -23.9704 H   0  0  0  0  0  0  0  0  0  0  0  0
   -5.6531    2.3638  -25.7670 H   0  0  0  0  0  0  0  0  0  0  0  0
  1  2  1  0
  2  3  2  0
  3  4  1  0
  4  5  2  0
  5  6  1  0
  6  7  1  0
  7  8  1  0
  9  8  1  6
  9 10  1  0
 10 11  2  0
 10 12  1  0
 12 13  1  0
 13 14  2  0
 14 15  1  0
 15 16  2  0
 16 17  1  0
 17 18  2  0
 18 19  1  0
 19 20  2  0
 20 21  1  0
 21 22  2  0
 12 23  1  0
 23 24  1  0
 24 25  1  0
  9 26  1  0
 26 27  2  0
 27 28  1  0
 28 29  1  0
 28 30  2  0
 30 31  1  0
 31 32  2  0
 32 33  1  0
 33 34  2  0
  5 35  1  0
 35 36  2  0
 36  2  1  0
 33  7  1  0
 24  9  1  0
 32 26  1  0
 22 13  1  0
 22 17  1  0
  1 37  1  0
  1 38  1  0
  1 39  1  0
  3 40  1  0
  6 41  1  0
  6 42  1  0
  8 43  1  0
  8 44  1  0
 14 45  1  0
 16 46  1  0
 18 47  1  0
 19 48  1  0
 20 49  1  0
 21 50  1  0
 23 51  1  0
 23 52  1  0
 24 53  1  1
 25 54  1  0
 25 55  1  0
 25 56  1  0
 27 57  1  0
 30 58  1  0
 31 59  1  0
 35 60  1  0
M  END
