
     RDKit          3D

 63 67  0  0  0  0  0  0  0  0999 V2000
   -9.6732   -6.1224  -29.5151 C   0  0  0  0  0  0  0  0  0  0  0  0
   -9.1247   -5.6673  -28.3978 C   0  0  0  0  0  0  0  0  0  0  0  0
   -9.8233   -5.7683  -27.0877 C   0  0  0  0  0  0  0  0  0  0  0  0
  -10.2977   -6.7937  -26.6646 O   0  0  0  0  0  0  0  0  0  0  0  0
   -9.9830   -4.5301  -26.3941 N   0  0  0  0  0  0  0  0  0  0  0  0
  -10.8473   -3.5445  -27.0443 C   0  0  0  0  0  0  0  0  0  0  0  0
  -11.3821   -2.5169  -26.0369 C   0  0  0  0  0  0  0  0  0  0  0  0
  -10.6440   -2.5311  -24.7072 C   0  0  0  0  0  0  0  0  0  0  0  0
   -9.2023   -2.9303  -24.8179 C   0  0  0  0  0  0  0  0  0  0  0  0
   -8.9272   -4.0468  -25.6098 C   0  0  0  0  0  0  0  0  0  0  0  0
   -7.6761   -4.6649  -25.5402 C   0  0  0  0  0  0  0  0  0  0  0  0
   -6.6670   -4.0734  -24.7938 C   0  0  0  0  0  0  0  0  0  0  0  0
   -6.9066   -2.9080  -24.0725 C   0  0  0  0  0  0  0  0  0  0  0  0
   -8.1880   -2.3573  -24.0354 C   0  0  0  0  0  0  0  0  0  0  0  0
   -8.5184   -1.2242  -23.2513 N   0  0  2  0  0  0  0  0  0  0  0  0
  -10.0043    0.9508  -23.8752 C   0  0  0  0  0  0  0  0  0  0  0  0
  -11.3664    0.7262  -23.3543 C   0  0  0  0  0  0  0  0  0  0  0  0
  -12.3368    1.7042  -23.5797 C   0  0  0  0  0  0  0  0  0  0  0  0
  -13.6848    1.3982  -23.4662 C   0  0  0  0  0  0  0  0  0  0  0  0
  -14.1016    0.1113  -23.1494 C   0  0  0  0  0  0  0  0  0  0  0  0
  -13.1282   -0.8213  -22.8340 C   0  0  0  0  0  0  0  0  0  0  0  0
  -13.6200   -2.4718  -22.5658 Cl  0  0  0  0  0  0  0  0  0  0  0  0
  -11.7871   -0.4759  -22.7714 C   0  0  0  0  0  0  0  0  0  0  0  0
   -8.1993   -0.9313  -21.9484 C   0  0  0  0  0  0  0  0  0  0  0  0
   -8.5206    0.1375  -21.4594 O   0  0  0  0  0  0  0  0  0  0  0  0
   -7.5270   -1.9765  -21.0786 C   0  0  0  0  0  0  0  0  0  0  0  0
   -6.6267   -1.3423  -20.0511 C   0  0  0  0  0  0  0  0  0  0  0  0
   -6.8328   -1.6211  -18.7269 C   0  0  0  0  0  0  0  0  0  0  0  0
   -6.1096   -1.1221  -17.6974 N   0  0  0  0  0  0  0  0  0  0  0  0
   -5.1413   -0.2943  -17.9968 C   0  0  0  0  0  0  0  0  0  0  0  0
   -4.8213    0.1016  -19.3217 C   0  0  0  0  0  0  0  0  0  0  0  0
   -3.7914    1.0407  -19.5784 C   0  0  0  0  0  0  0  0  0  0  0  0
   -3.4667    1.3838  -20.8613 C   0  0  0  0  0  0  0  0  0  0  0  0
   -4.1765    0.8068  -21.9396 C   0  0  0  0  0  0  0  0  0  0  0  0
   -5.2045   -0.0748  -21.7186 C   0  0  0  0  0  0  0  0  0  0  0  0
   -5.5691   -0.4482  -20.3916 C   0  0  0  0  0  0  0  0  0  0  0  0
  -10.6196   -6.6583  -29.5116 H   0  0  0  0  0  0  0  0  0  0  0  0
   -9.1670   -6.0124  -30.4709 H   0  0  0  0  0  0  0  0  0  0  0  0
   -8.1681   -5.1478  -28.4190 H   0  0  0  0  0  0  0  0  0  0  0  0
  -11.6681   -4.0921  -27.5165 H   0  0  0  0  0  0  0  0  0  0  0  0
  -10.2942   -3.0350  -27.8465 H   0  0  0  0  0  0  0  0  0  0  0  0
  -12.4507   -2.6684  -25.8589 H   0  0  0  0  0  0  0  0  0  0  0  0
  -11.2557   -1.5113  -26.4424 H   0  0  0  0  0  0  0  0  0  0  0  0
  -10.7069   -1.5228  -24.3264 H   0  0  0  0  0  0  0  0  0  0  0  0
  -11.1529   -3.2100  -24.0070 H   0  0  0  0  0  0  0  0  0  0  0  0
   -7.4860   -5.6015  -26.0505 H   0  0  0  0  0  0  0  0  0  0  0  0
   -5.6894   -4.5459  -24.7482 H   0  0  0  0  0  0  0  0  0  0  0  0
   -6.0863   -2.4606  -23.5144 H   0  0  0  0  0  0  0  0  0  0  0  0
   -9.1831   -0.5083  -23.6219 H   0  0  0  0  0  0  0  0  0  0  0  0
   -9.8989    0.8927  -24.9576 H   0  0  0  0  0  0  0  0  0  0  0  0
   -9.4352    1.7665  -23.4343 H   0  0  0  0  0  0  0  0  0  0  0  0
  -12.0321    2.7062  -23.8671 H   0  0  0  0  0  0  0  0  0  0  0  0
  -14.4102    2.1751  -23.6687 H   0  0  0  0  0  0  0  0  0  0  0  0
  -15.1424   -0.1896  -23.1154 H   0  0  0  0  0  0  0  0  0  0  0  0
  -11.0703   -1.1703  -22.3466 H   0  0  0  0  0  0  0  0  0  0  0  0
   -8.3463   -2.4847  -20.5569 H   0  0  0  0  0  0  0  0  0  0  0  0
   -7.0216   -2.7591  -21.6469 H   0  0  0  0  0  0  0  0  0  0  0  0
   -7.6381   -2.2960  -18.4352 H   0  0  0  0  0  0  0  0  0  0  0  0
   -4.5629    0.1134  -17.1668 H   0  0  0  0  0  0  0  0  0  0  0  0
   -3.2770    1.4833  -18.7293 H   0  0  0  0  0  0  0  0  0  0  0  0
   -2.6769    2.1042  -21.0567 H   0  0  0  0  0  0  0  0  0  0  0  0
   -3.9089    1.0769  -22.9564 H   0  0  0  0  0  0  0  0  0  0  0  0
   -5.7564   -0.4664  -22.5689 H   0  0  0  0  0  0  0  0  0  0  0  0
  1  2  2  0
  2  3  1  0
  3  4  2  0
  3  5  1  0
  5  6  1  0
  6  7  1  0
  7  8  1  0
  8  9  1  0
  9 10  2  0
 10 11  1  0
 11 12  2  0
 12 13  1  0
 13 14  2  0
 14 15  1  0
 15 16  1  0
 16 17  1  0
 17 18  2  0
 18 19  1  0
 19 20  2  0
 20 21  1  0
 21 22  1  0
 21 23  2  0
 15 24  1  0
 24 25  2  0
 24 26  1  0
 26 27  1  0
 27 28  2  0
 28 29  1  0
 29 30  2  0
 30 31  1  0
 31 32  2  0
 32 33  1  0
 33 34  2  0
 34 35  1  0
 35 36  2  0
 10  5  1  0
 23 17  1  0
 36 27  1  0
 14  9  1  0
 36 31  1  0
  1 37  1  0
  1 38  1  0
  2 39  1  0
  6 40  1  0
  6 41  1  0
  7 42  1  0
  7 43  1  0
  8 44  1  0
  8 45  1  0
 11 46  1  0
 12 47  1  0
 13 48  1  0
 15 49  1  1
 16 50  1  0
 16 51  1  0
 18 52  1  0
 19 53  1  0
 20 54  1  0
 23 55  1  0
 26 56  1  0
 26 57  1  0
 28 58  1  0
 30 59  1  0
 32 60  1  0
 33 61  1  0
 34 62  1  0
 35 63  1  0
M  CHG  1  15   1
M  END
