mobile
  PyMOL3.1          3D                             0

 54 57  0  0  0  0  0  0  0  0999 V2000
   -8.7270    0.3566  -21.2646 O   0  0  0  0  0  0  0  0  0  0  0  0
   -8.4970   -0.7281  -21.7916 C   0  0  0  0  0  0  0  0  0  0  0  0
   -7.5683   -1.7252  -21.1247 C   0  0  0  0  0  0  0  0  0  0  0  0
   -6.7273   -1.0943  -20.0349 C   0  0  0  0  0  0  0  0  0  0  0  0
   -5.6387   -0.2356  -20.3587 C   0  0  0  0  0  0  0  0  0  0  0  0
   -5.2433    0.0571  -21.6910 C   0  0  0  0  0  0  0  0  0  0  0  0
   -4.1996    0.9050  -21.9453 C   0  0  0  0  0  0  0  0  0  0  0  0
   -3.5028    1.4998  -20.9033 C   0  0  0  0  0  0  0  0  0  0  0  0
   -3.8490    1.2548  -19.6062 C   0  0  0  0  0  0  0  0  0  0  0  0
   -4.9168    0.3793  -19.2987 C   0  0  0  0  0  0  0  0  0  0  0  0
   -5.3292    0.0879  -17.9728 C   0  0  0  0  0  0  0  0  0  0  0  0
   -6.3396   -0.7241  -17.6735 N   0  0  0  0  0  0  0  0  0  0  0  0
   -7.0066   -1.2876  -18.6946 C   0  0  0  0  0  0  0  0  0  0  0  0
   -9.0151   -1.0622  -23.0086 N   0  0  0  0  0  0  0  0  0  0  0  0
   -8.7961   -2.3031  -23.6268 C   0  0  0  0  0  0  0  0  0  0  0  0
   -7.9626   -2.4227  -24.7303 C   0  0  0  0  0  0  0  0  0  0  0  0
   -7.8899   -3.6605  -25.3381 C   0  0  0  0  0  0  0  0  0  0  0  0
   -9.5043   -3.3184  -23.1102 N   0  0  0  0  0  0  0  0  0  0  0  0
   -9.4129   -4.5184  -23.7075 C   0  0  0  0  0  0  0  0  0  0  0  0
   -8.6171   -4.7395  -24.8306 C   0  0  0  0  0  0  0  0  0  0  0  0
   -8.5451   -6.0020  -25.4170 N   0  0  0  0  0  0  0  0  0  0  0  0
   -8.1180   -6.1586  -26.7969 C   0  0  0  0  0  0  0  0  0  0  0  0
   -9.2965   -7.1281  -24.8800 C   0  0  0  0  0  0  0  0  0  0  0  0
   -9.8230   -0.0626  -23.7224 C   0  0  0  0  0  0  0  0  0  0  0  0
  -11.2707   -0.0409  -23.2950 C   0  0  0  0  0  0  0  0  0  0  0  0
  -11.8526   -1.1665  -22.7181 C   0  0  0  0  0  0  0  0  0  0  0  0
  -13.1408   -1.0928  -22.2219 C   0  0  0  0  0  0  0  0  0  0  0  0
  -13.7639   -2.4285  -21.2865 Cl  0  0  0  0  0  0  0  0  0  0  0  0
  -13.9175    0.0315  -22.3914 C   0  0  0  0  0  0  0  0  0  0  0  0
  -13.3461    1.1496  -22.9794 C   0  0  0  0  0  0  0  0  0  0  0  0
  -12.0272    1.1182  -23.4079 C   0  0  0  0  0  0  0  0  0  0  0  0
   -8.1742   -2.5299  -20.6825 H   0  0  0  0  0  0  0  0  0  0  0  0
   -6.8979   -2.1478  -21.8880 H   0  0  0  0  0  0  0  0  0  0  0  0
   -5.7727   -0.3965  -22.5157 H   0  0  0  0  0  0  0  0  0  0  0  0
   -3.9171    1.1137  -22.9668 H   0  0  0  0  0  0  0  0  0  0  0  0
   -2.6797    2.1641  -21.1209 H   0  0  0  0  0  0  0  0  0  0  0  0
   -3.3029    1.7334  -18.8067 H   0  0  0  0  0  0  0  0  0  0  0  0
   -4.7919    0.5526  -17.1601 H   0  0  0  0  0  0  0  0  0  0  0  0
   -7.8275   -1.9452  -18.4481 H   0  0  0  0  0  0  0  0  0  0  0  0
   -7.3940   -1.5815  -25.0978 H   0  0  0  0  0  0  0  0  0  0  0  0
   -7.2680   -3.7945  -26.2109 H   0  0  0  0  0  0  0  0  0  0  0  0
   -9.9775   -5.3447  -23.3021 H   0  0  0  0  0  0  0  0  0  0  0  0
   -8.1301   -7.2249  -27.0665 H   0  0  0  0  0  0  0  0  0  0  0  0
   -8.8030   -5.6057  -27.4579 H   0  0  0  0  0  0  0  0  0  0  0  0
   -7.0988   -5.7629  -26.9129 H   0  0  0  0  0  0  0  0  0  0  0  0
   -9.0995   -8.0242  -25.4863 H   0  0  0  0  0  0  0  0  0  0  0  0
   -8.9866   -7.3127  -23.8407 H   0  0  0  0  0  0  0  0  0  0  0  0
  -10.3712   -6.8968  -24.9053 H   0  0  0  0  0  0  0  0  0  0  0  0
   -9.3903    0.9309  -23.5371 H   0  0  0  0  0  0  0  0  0  0  0  0
   -9.7804   -0.2860  -24.7987 H   0  0  0  0  0  0  0  0  0  0  0  0
  -11.3009   -2.0933  -22.6594 H   0  0  0  0  0  0  0  0  0  0  0  0
  -14.9497    0.0418  -22.0746 H   0  0  0  0  0  0  0  0  0  0  0  0
  -13.9300    2.0491  -23.1052 H   0  0  0  0  0  0  0  0  0  0  0  0
  -11.5841    2.0057  -23.8345 H   0  0  0  0  0  0  0  0  0  0  0  0
  1  2  2  0  0  0  0
  2  3  1  0  0  0  0
  2 14  1  0  0  0  0
  3  4  1  0  0  0  0
  3 32  1  0  0  0  0
  3 33  1  0  0  0  0
  4  5  4  0  0  0  0
  4 13  4  0  0  0  0
  5  6  4  0  0  0  0
  5 10  4  0  0  0  0
  6  7  4  0  0  0  0
  6 34  1  0  0  0  0
  7  8  4  0  0  0  0
  7 35  1  0  0  0  0
  8  9  4  0  0  0  0
  8 36  1  0  0  0  0
  9 10  4  0  0  0  0
  9 37  1  0  0  0  0
 10 11  4  0  0  0  0
 11 12  4  0  0  0  0
 11 38  1  0  0  0  0
 12 13  4  0  0  0  0
 13 39  1  0  0  0  0
 14 15  1  0  0  0  0
 14 24  1  0  0  0  0
 15 16  4  0  0  0  0
 15 18  4  0  0  0  0
 16 17  4  0  0  0  0
 16 40  1  0  0  0  0
 17 20  4  0  0  0  0
 17 41  1  0  0  0  0
 18 19  4  0  0  0  0
 19 20  4  0  0  0  0
 19 42  1  0  0  0  0
 20 21  1  0  0  0  0
 21 22  1  0  0  0  0
 21 23  1  0  0  0  0
 22 43  1  0  0  0  0
 22 44  1  0  0  0  0
 22 45  1  0  0  0  0
 23 46  1  0  0  0  0
 23 47  1  0  0  0  0
 23 48  1  0  0  0  0
 24 25  1  0  0  0  0
 24 49  1  0  0  0  0
 24 50  1  0  0  0  0
 25 26  4  0  0  0  0
 25 31  4  0  0  0  0
 26 27  4  0  0  0  0
 26 51  1  0  0  0  0
 27 28  1  0  0  0  0
 27 29  4  0  0  0  0
 29 30  4  0  0  0  0
 29 52  1  0  0  0  0
 30 31  4  0  0  0  0
 30 53  1  0  0  0  0
 31 54  1  0  0  0  0
M  END
$$$$
