LIG(A-307)
     RDKit          3D

 34 39  0  0  1  0  0  0  0  0999 V2000
    6.6684    4.2415   24.9448 O   0  0  0  0  0  0  0  0  0  0  0  0
    7.5144    3.5477   24.4035 C   0  0  0  0  0  0  0  0  0  0  0  0
    7.8590    3.6849   23.1284 N   0  0  0  0  0  0  0  0  0  0  0  0
    7.0846    4.5118   22.2207 C   0  0  0  0  0  0  0  0  0  0  0  0
    8.1798    2.4318   25.2172 C   0  0  0  0  0  0  0  0  0  0  0  0
    7.3472    1.8305   26.3184 C   0  0  0  0  0  0  0  0  0  0  0  0
    8.4731    2.7467   26.6602 C   0  0  0  0  0  0  0  0  0  0  0  0
    9.1288    1.5110   24.5299 N   0  0  0  0  0  0  0  0  0  0  0  0
   10.4067    1.9193   24.2866 C   0  0  0  0  0  0  0  0  0  0  0  0
   10.7705    3.0483   24.5526 O   0  0  0  0  0  0  0  0  0  0  0  0
   11.3097    0.9565   23.6363 C   0  0  0  0  0  0  0  0  0  0  0  0
   12.6817    1.2078   23.6420 C   0  0  0  0  0  0  0  0  0  0  0  0
   13.5527    0.3500   22.9936 C   0  0  0  0  0  0  0  0  0  0  0  0
   13.0487   -0.7700   22.3657 C   0  0  0  0  0  0  0  0  0  0  0  0
   14.1377   -1.8087   21.4903 Cl  0  0  0  0  0  0  0  0  0  0  0  0
   11.7008   -1.0693   22.3740 C   0  0  0  0  0  0  0  0  0  0  0  0
   10.8158   -0.1855   22.9873 C   0  0  0  0  0  0  0  0  0  0  0  0
    8.6550    0.1739   24.1699 C   0  0  0  0  0  0  0  0  0  0  0  0
    9.3048   -0.3438   22.8587 C   0  0  1  0  0  0  0  0  0  0  0  0
    8.7413    0.4512   21.6799 C   0  0  0  0  0  0  0  0  0  0  0  0
    9.1380    1.5323   21.2849 O   0  0  0  0  0  0  0  0  0  0  0  0
    8.8489   -1.7839   22.5146 C   0  0  0  0  0  0  0  0  0  0  0  0
    7.5217   -1.5620   21.8010 C   0  0  0  0  0  0  0  0  0  0  0  0
    7.7083   -0.2559   21.1471 N   0  0  0  0  0  0  0  0  0  0  0  0
    6.8669    0.1970   20.0873 C   0  0  0  0  0  0  0  0  0  0  0  0
    5.7249    0.9897   20.3877 C   0  0  0  0  0  0  0  0  0  0  0  0
    5.2811    1.2815   21.7068 C   0  0  0  0  0  0  0  0  0  0  0  0
    4.1870    2.0733   21.9222 C   0  0  0  0  0  0  0  0  0  0  0  0
    3.4887    2.6223   20.8514 C   0  0  0  0  0  0  0  0  0  0  0  0
    3.8724    2.3645   19.5653 C   0  0  0  0  0  0  0  0  0  0  0  0
    4.9895    1.5337   19.2969 C   0  0  0  0  0  0  0  0  0  0  0  0
    5.4262    1.2159   17.9818 C   0  0  0  0  0  0  0  0  0  0  0  0
    6.4843    0.4561   17.7075 N   0  0  0  0  0  0  0  0  0  0  0  0
    7.1806   -0.0288   18.7462 C   0  0  0  0  0  0  0  0  0  0  0  0
  1  2  2  0
  2  3  1  0
  2  5  1  0
  3  4  1  0
  5  6  1  0
  5  7  1  0
  5  8  1  0
  6  7  1  0
  8  9  1  0
  8 18  1  0
  9 10  2  0
  9 11  1  0
 11 12  2  0
 11 17  1  0
 12 13  1  0
 13 14  2  0
 14 15  1  0
 14 16  1  0
 16 17  2  0
 17 19  1  0
 19 18  1  1
 19 20  1  0
 19 22  1  0
 20 21  2  0
 20 24  1  0
 22 23  1  0
 23 24  1  0
 24 25  1  0
 25 26  1  0
 25 34  2  0
 26 27  2  0
 26 31  1  0
 27 28  1  0
 28 29  2  0
 29 30  1  0
 30 31  2  0
 31 32  1  0
 32 33  2  0
 33 34  1  0
M  END
$$$$
