
     RDKit          3D

 67 73  0  0  0  0  0  0  0  0999 V2000
    8.5292   -1.4043   23.9066 C   0  0  0  0  0  0  0  0  0  0  0  0
    8.4883   -0.8416   22.4880 C   0  0  1  0  0  0  0  0  0  0  0  0
    7.2111   -1.2556   21.7314 C   0  0  0  0  0  0  0  0  0  0  0  0
    6.9692   -0.1443   20.8407 N   0  0  0  0  0  0  0  0  0  0  0  0
    5.9360   -0.1028   19.8740 C   0  0  0  0  0  0  0  0  0  0  0  0
    6.0797   -0.7811   18.6927 C   0  0  0  0  0  0  0  0  0  0  0  0
    5.2383   -0.6690   17.6378 N   0  0  0  0  0  0  0  0  0  0  0  0
    4.1888    0.1067   17.7877 C   0  0  0  0  0  0  0  0  0  0  0  0
    3.8665    0.7896   18.9950 C   0  0  0  0  0  0  0  0  0  0  0  0
    2.6880    1.5716   19.1258 C   0  0  0  0  0  0  0  0  0  0  0  0
    2.3651    2.1600   20.3185 C   0  0  0  0  0  0  0  0  0  0  0  0
    3.2236    2.0162   21.4307 C   0  0  0  0  0  0  0  0  0  0  0  0
    4.3850    1.2896   21.3226 C   0  0  0  0  0  0  0  0  0  0  0  0
    4.7490    0.6662   20.0926 C   0  0  0  0  0  0  0  0  0  0  0  0
    7.7417    0.9678   21.0900 C   0  0  0  0  0  0  0  0  0  0  0  0
    7.6879    1.9824   20.4257 O   0  0  0  0  0  0  0  0  0  0  0  0
    8.5832    0.7111   22.3641 C   0  0  1  0  0  0  0  0  0  0  0  0
    7.8921    1.4435   23.5497 C   0  0  0  0  0  0  0  0  0  0  0  0
    7.9447    2.8848   23.3991 N   0  0  0  0  0  0  0  0  0  0  0  0
    6.8167    3.7380   23.7199 C   0  0  0  0  0  0  0  0  0  0  0  0
    6.2396    4.3611   22.4508 C   0  0  0  0  0  0  0  0  0  0  0  0
    5.0587    5.2055   22.7575 N   0  0  2  0  0  0  0  0  0  0  0  0
    4.2342    5.5832   21.5294 C   0  0  0  0  0  0  0  0  0  0  0  0
    4.1768    7.1176   21.6110 C   0  0  2  0  0  0  0  0  0  0  0  0
    5.5705    7.4664   22.1284 C   0  0  0  0  0  0  0  0  0  0  0  0
    5.3831    6.5857   23.3627 C   0  0  1  0  0  0  0  0  0  0  0  0
    4.0586    7.1242   23.8936 C   0  0  0  0  0  0  0  0  0  0  0  0
    3.3265    7.4776   22.7070 O   0  0  0  0  0  0  0  0  0  0  0  0
    9.0841    3.5289   23.0095 C   0  0  0  0  0  0  0  0  0  0  0  0
    9.2154    4.7443   23.1014 O   0  0  0  0  0  0  0  0  0  0  0  0
   10.1779    2.6755   22.4607 C   0  0  0  0  0  0  0  0  0  0  0  0
   11.4046    3.2909   22.2044 C   0  0  0  0  0  0  0  0  0  0  0  0
   12.5136    2.5239   21.9178 C   0  0  0  0  0  0  0  0  0  0  0  0
   12.3670    1.1363   21.8740 C   0  0  0  0  0  0  0  0  0  0  0  0
   13.7696    0.1572   21.5820 Cl  0  0  0  0  0  0  0  0  0  0  0  0
   11.1346    0.5259   22.0302 C   0  0  0  0  0  0  0  0  0  0  0  0
    9.9915    1.2940   22.2817 C   0  0  0  0  0  0  0  0  0  0  0  0
    8.5142   -2.4986   23.8956 H   0  0  0  0  0  0  0  0  0  0  0  0
    7.6587   -1.0733   24.4866 H   0  0  0  0  0  0  0  0  0  0  0  0
    9.4293   -1.0882   24.4427 H   0  0  0  0  0  0  0  0  0  0  0  0
    9.3262   -1.2535   21.9179 H   0  0  0  0  0  0  0  0  0  0  0  0
    6.3672   -1.4107   22.4191 H   0  0  0  0  0  0  0  0  0  0  0  0
    7.3392   -2.1842   21.1633 H   0  0  0  0  0  0  0  0  0  0  0  0
    6.9413   -1.4317   18.5455 H   0  0  0  0  0  0  0  0  0  0  0  0
    3.5120    0.1992   16.9369 H   0  0  0  0  0  0  0  0  0  0  0  0
    2.0543    1.6978   18.2547 H   0  0  0  0  0  0  0  0  0  0  0  0
    1.4490    2.7380   20.4101 H   0  0  0  0  0  0  0  0  0  0  0  0
    2.9604    2.4858   22.3753 H   0  0  0  0  0  0  0  0  0  0  0  0
    5.0335    1.1903   22.1875 H   0  0  0  0  0  0  0  0  0  0  0  0
    8.3928    1.1479   24.4805 H   0  0  0  0  0  0  0  0  0  0  0  0
    6.8440    1.1384   23.6191 H   0  0  0  0  0  0  0  0  0  0  0  0
    7.1637    4.5248   24.3968 H   0  0  0  0  0  0  0  0  0  0  0  0
    6.0472    3.1598   24.2440 H   0  0  0  0  0  0  0  0  0  0  0  0
    5.9488    3.5727   21.7510 H   0  0  0  0  0  0  0  0  0  0  0  0
    7.0073    4.9650   21.9587 H   0  0  0  0  0  0  0  0  0  0  0  0
    4.4781    4.6533   23.4132 H   0  0  0  0  0  0  0  0  0  0  0  0
    4.7579    5.2419   20.6333 H   0  0  0  0  0  0  0  0  0  0  0  0
    3.2501    5.1153   21.5836 H   0  0  0  0  0  0  0  0  0  0  0  0
    3.8215    7.6069   20.7052 H   0  0  0  0  0  0  0  0  0  0  0  0
    5.6668    8.5237   22.3811 H   0  0  0  0  0  0  0  0  0  0  0  0
    6.3922    7.1615   21.4720 H   0  0  0  0  0  0  0  0  0  0  0  0
    6.2015    6.5289   24.0746 H   0  0  0  0  0  0  0  0  0  0  0  0
    3.5131    6.3557   24.4581 H   0  0  0  0  0  0  0  0  0  0  0  0
    4.1859    8.0121   24.5229 H   0  0  0  0  0  0  0  0  0  0  0  0
   11.4835    4.3752   22.2539 H   0  0  0  0  0  0  0  0  0  0  0  0
   13.4723    3.0118   21.7668 H   0  0  0  0  0  0  0  0  0  0  0  0
   11.0671   -0.5493   21.9176 H   0  0  0  0  0  0  0  0  0  0  0  0
  1  2  1  0
  2  3  1  0
  3  4  1  0
  4  5  1  0
  5  6  2  0
  6  7  1  0
  7  8  2  0
  8  9  1  0
  9 10  2  0
 10 11  1  0
 11 12  2  0
 12 13  1  0
 13 14  2  0
  4 15  1  0
 15 16  2  0
 15 17  1  0
 17 18  1  1
 18 19  1  0
 19 20  1  0
 20 21  1  0
 21 22  1  0
 22 23  1  0
 23 24  1  0
 24 25  1  0
 25 26  1  0
 26 27  1  0
 27 28  1  0
 19 29  1  0
 29 30  2  0
 29 31  1  0
 31 32  2  0
 32 33  1  0
 33 34  2  0
 34 35  1  0
 34 36  1  0
 36 37  2  0
 17  2  1  0
 26 22  1  0
 37 31  1  0
 14  5  1  0
 37 17  1  0
 14  9  1  0
 28 24  1  0
  1 38  1  0
  1 39  1  0
  1 40  1  0
  2 41  1  6
  3 42  1  0
  3 43  1  0
  6 44  1  0
  8 45  1  0
 10 46  1  0
 11 47  1  0
 12 48  1  0
 13 49  1  0
 18 50  1  0
 18 51  1  0
 20 52  1  0
 20 53  1  0
 21 54  1  0
 21 55  1  0
 22 56  1  1
 23 57  1  0
 23 58  1  0
 24 59  1  6
 25 60  1  0
 25 61  1  0
 26 62  1  1
 27 63  1  0
 27 64  1  0
 32 65  1  0
 33 66  1  0
 36 67  1  0
M  CHG  1  22   1
M  END
$$$$
