
     RDKit          3D

 54 57  0  0  0  0  0  0  0  0999 V2000
    5.6152   -0.3156   27.1284 C   0  0  0  0  0  0  0  0  0  0  0  0
    6.6332   -0.3555   26.1534 O   0  0  0  0  0  0  0  0  0  0  0  0
    7.1450   -1.5813   25.8399 C   0  0  0  0  0  0  0  0  0  0  0  0
    6.7096   -2.7572   26.4498 C   0  0  0  0  0  0  0  0  0  0  0  0
    7.2446   -3.9828   26.0711 C   0  0  0  0  0  0  0  0  0  0  0  0
    8.2180   -4.0339   25.0891 C   0  0  0  0  0  0  0  0  0  0  0  0
    8.6459   -2.8577   24.4862 C   0  0  0  0  0  0  0  0  0  0  0  0
    8.1106   -1.6227   24.8217 C   0  0  0  0  0  0  0  0  0  0  0  0
    8.4943   -0.3589   24.0671 C   0  0  1  0  0  0  0  0  0  0  0  0
    9.3287    0.6555   24.8983 C   0  0  0  0  0  0  0  0  0  0  0  0
   10.0573    1.6799   24.0015 C   0  0  2  0  0  0  0  0  0  0  0  0
    9.1282    2.5758   23.1717 C   0  0  0  0  0  0  0  0  0  0  0  0
   11.0690    0.9453   23.0957 C   0  0  0  0  0  0  0  0  0  0  0  0
   10.6791   -0.5258   22.9629 C   0  0  0  0  0  0  0  0  0  0  0  0
    9.2222   -0.6846   22.8339 N   0  0  0  0  0  0  0  0  0  0  0  0
    8.7087   -0.3500   21.5846 C   0  0  0  0  0  0  0  0  0  0  0  0
    9.4099    0.2368   20.7916 O   0  0  0  0  0  0  0  0  0  0  0  0
    7.3373   -0.8944   21.1805 C   0  0  0  0  0  0  0  0  0  0  0  0
    6.5575   -0.1450   20.1176 C   0  0  0  0  0  0  0  0  0  0  0  0
    6.7993   -0.3986   18.7897 C   0  0  0  0  0  0  0  0  0  0  0  0
    6.0753    0.0774   17.7440 N   0  0  0  0  0  0  0  0  0  0  0  0
    5.0591    0.8604   18.0155 C   0  0  0  0  0  0  0  0  0  0  0  0
    4.7069    1.2428   19.3356 C   0  0  0  0  0  0  0  0  0  0  0  0
    3.6202    2.1171   19.5819 C   0  0  0  0  0  0  0  0  0  0  0  0
    3.2819    2.4662   20.8632 C   0  0  0  0  0  0  0  0  0  0  0  0
    4.0075    1.9293   21.9479 C   0  0  0  0  0  0  0  0  0  0  0  0
    5.0587    1.0732   21.7348 C   0  0  0  0  0  0  0  0  0  0  0  0
    5.4613    0.7215   20.4190 C   0  0  0  0  0  0  0  0  0  0  0  0
    4.7417   -0.9013   26.8110 H   0  0  0  0  0  0  0  0  0  0  0  0
    5.3284    0.7324   27.2377 H   0  0  0  0  0  0  0  0  0  0  0  0
    5.9753   -0.7031   28.0915 H   0  0  0  0  0  0  0  0  0  0  0  0
    5.9418   -2.7338   27.2120 H   0  0  0  0  0  0  0  0  0  0  0  0
    6.8841   -4.8955   26.5360 H   0  0  0  0  0  0  0  0  0  0  0  0
    8.6320   -4.9800   24.7621 H   0  0  0  0  0  0  0  0  0  0  0  0
    9.3895   -2.9026   23.7001 H   0  0  0  0  0  0  0  0  0  0  0  0
    7.5720    0.1556   23.7677 H   0  0  0  0  0  0  0  0  0  0  0  0
    8.6699    1.1580   25.6091 H   0  0  0  0  0  0  0  0  0  0  0  0
   10.0808    0.1202   25.4945 H   0  0  0  0  0  0  0  0  0  0  0  0
   10.6149    2.3679   24.6455 H   0  0  0  0  0  0  0  0  0  0  0  0
    9.7437    3.2088   22.5294 H   0  0  0  0  0  0  0  0  0  0  0  0
    8.4474    2.0215   22.5169 H   0  0  0  0  0  0  0  0  0  0  0  0
    8.5389    3.2490   23.8021 H   0  0  0  0  0  0  0  0  0  0  0  0
   11.0899    1.4140   22.1111 H   0  0  0  0  0  0  0  0  0  0  0  0
   12.0950    1.0195   23.4743 H   0  0  0  0  0  0  0  0  0  0  0  0
   11.1693   -1.0002   22.1111 H   0  0  0  0  0  0  0  0  0  0  0  0
   11.0109   -1.0622   23.8630 H   0  0  0  0  0  0  0  0  0  0  0  0
    6.7573   -1.0723   22.0858 H   0  0  0  0  0  0  0  0  0  0  0  0
    7.5738   -1.8918   20.7751 H   0  0  0  0  0  0  0  0  0  0  0  0
    7.6160   -1.0590   18.4967 H   0  0  0  0  0  0  0  0  0  0  0  0
    4.4578    1.2339   17.1803 H   0  0  0  0  0  0  0  0  0  0  0  0
    3.0652    2.5069   18.7333 H   0  0  0  0  0  0  0  0  0  0  0  0
    2.4683    3.1599   21.0548 H   0  0  0  0  0  0  0  0  0  0  0  0
    3.7227    2.1857   22.9652 H   0  0  0  0  0  0  0  0  0  0  0  0
    5.5934    0.6517   22.5835 H   0  0  0  0  0  0  0  0  0  0  0  0
  1  2  1  0
  2  3  1  0
  3  4  2  0
  4  5  1  0
  5  6  2  0
  6  7  1  0
  7  8  2  0
  8  9  1  0
  9 10  1  0
 10 11  1  0
 11 12  1  0
 11 13  1  0
 13 14  1  0
 14 15  1  0
 15 16  1  0
 16 17  2  0
 16 18  1  0
 18 19  1  0
 19 20  2  0
 20 21  1  0
 21 22  2  0
 22 23  1  0
 23 24  2  0
 24 25  1  0
 25 26  2  0
 26 27  1  0
 27 28  2  0
  8  3  1  0
 15  9  1  0
 28 19  1  0
 28 23  1  0
  1 29  1  0
  1 30  1  0
  1 31  1  0
  4 32  1  0
  5 33  1  0
  6 34  1  0
  7 35  1  0
  9 36  1  6
 10 37  1  0
 10 38  1  0
 11 39  1  6
 12 40  1  0
 12 41  1  0
 12 42  1  0
 13 43  1  0
 13 44  1  0
 14 45  1  0
 14 46  1  0
 18 47  1  0
 18 48  1  0
 20 49  1  0
 22 50  1  0
 24 51  1  0
 25 52  1  0
 26 53  1  0
 27 54  1  0
M  END
$$$$
