LIG(A-306)
     RDKit          3D

 32 36  0  0  1  0  0  0  0  0999 V2000
    9.0624    1.2370   21.3347 O   0  0  0  0  0  0  0  0  0  0  0  0
    8.6157    0.1549   21.7136 C   0  0  0  0  0  0  0  0  0  0  0  0
    7.5368   -0.4333   21.1506 N   0  0  0  0  0  0  0  0  0  0  0  0
    6.7526    0.0586   20.0888 C   0  0  0  0  0  0  0  0  0  0  0  0
    5.5915    0.8323   20.4029 C   0  0  0  0  0  0  0  0  0  0  0  0
    5.1005    1.0210   21.7240 C   0  0  0  0  0  0  0  0  0  0  0  0
    3.9974    1.7927   21.9591 C   0  0  0  0  0  0  0  0  0  0  0  0
    3.3341    2.4187   20.9103 C   0  0  0  0  0  0  0  0  0  0  0  0
    3.7610    2.2599   19.6222 C   0  0  0  0  0  0  0  0  0  0  0  0
    4.8912    1.4542   19.3320 C   0  0  0  0  0  0  0  0  0  0  0  0
    5.3712    1.2374   18.0150 C   0  0  0  0  0  0  0  0  0  0  0  0
    6.4323    0.4977   17.7208 N   0  0  0  0  0  0  0  0  0  0  0  0
    7.0975   -0.0642   18.7417 C   0  0  0  0  0  0  0  0  0  0  0  0
    9.2140   -0.6091   22.8965 C   0  0  1  0  0  0  0  0  0  0  0  0
   10.6920   -0.2957   22.9754 C   0  0  0  0  0  0  0  0  0  0  0  0
   11.1437    0.8234   23.6864 C   0  0  0  0  0  0  0  0  0  0  0  0
   12.5017    1.1497   23.6834 C   0  0  0  0  0  0  0  0  0  0  0  0
   13.4078    0.3640   22.9942 C   0  0  0  0  0  0  0  0  0  0  0  0
   11.6181   -1.0984   22.3132 C   0  0  0  0  0  0  0  0  0  0  0  0
   12.9550   -0.7541   22.3271 C   0  0  0  0  0  0  0  0  0  0  0  0
   14.0902   -1.7387   21.4470 Cl  0  0  0  0  0  0  0  0  0  0  0  0
    8.5300   -0.1883   24.1966 C   0  0  0  0  0  0  0  0  0  0  0  0
    8.9117    1.1737   24.5827 N   0  0  0  0  0  0  0  0  0  0  0  0
   10.2096    1.6291   24.4916 C   0  0  0  0  0  0  0  0  0  0  0  0
   10.5554    2.6831   24.9927 O   0  0  0  0  0  0  0  0  0  0  0  0
    8.0027    1.7904   25.5318 C   0  0  0  0  0  0  0  0  0  0  0  0
    7.4383    3.1503   25.1510 C   0  0  0  0  0  0  0  0  0  0  0  0
    6.7242    3.7701   25.9391 O   0  0  0  0  0  0  0  0  0  0  0  0
    7.7871    3.6385   23.9520 N   0  0  0  0  0  0  0  0  0  0  0  0
    6.8199    4.0023   22.9161 C   0  0  0  0  0  0  0  0  0  0  0  0
    7.0615    5.2295   22.1222 C   0  0  0  0  0  0  0  0  0  0  0  0
    5.9666    5.1961   23.1253 C   0  0  0  0  0  0  0  0  0  0  0  0
  1  2  2  0
  2  3  1  0
 14  2  1  6
  3  4  1  0
  4  5  1  0
  4 13  2  0
  5  6  2  0
  5 10  1  0
  6  7  1  0
  7  8  2  0
  8  9  1  0
  9 10  2  0
 10 11  1  0
 11 12  2  0
 12 13  1  0
 14 15  1  0
 14 22  1  0
 15 16  1  0
 15 19  2  0
 16 17  2  0
 16 24  1  0
 17 18  1  0
 18 20  2  0
 19 20  1  0
 20 21  1  0
 22 23  1  0
 23 24  1  0
 23 26  1  0
 24 25  2  0
 26 27  1  0
 27 28  2  0
 27 29  1  0
 29 30  1  0
 30 31  1  0
 30 32  1  0
 31 32  1  0
M  END
$$$$
