
     RDKit          3D

 46 47  0  0  0  0  0  0  0  0999 V2000
    8.9374   -1.9837   23.6947 C   0  0  0  0  0  0  0  0  0  0  0  0
    9.1190   -0.6990   22.9008 C   0  0  2  0  0  0  0  0  0  0  0  0
    8.4651   -0.7186   21.5983 N   0  0  0  0  0  0  0  0  0  0  0  0
    7.1440   -0.3682   21.5343 C   0  0  0  0  0  0  0  0  0  0  0  0
    6.4871   -0.0998   22.5249 O   0  0  0  0  0  0  0  0  0  0  0  0
    6.5325   -0.3565   20.1409 C   0  0  0  0  0  0  0  0  0  0  0  0
    6.0949   -1.6947   19.8301 O   0  0  0  0  0  0  0  0  0  0  0  0
    6.5675   -2.2702   18.4043 S   0  0  0  0  0  0  0  0  0  0  0  0
    5.9330   -1.1367   17.3540 N   0  0  0  0  0  0  0  0  0  0  0  0
    8.0094   -2.1611   18.3217 O   0  0  0  0  0  0  0  0  0  0  0  0
    5.8682   -3.5221   18.2759 O   0  0  0  0  0  0  0  0  0  0  0  0
   10.5602   -0.2548   22.7722 C   0  0  0  0  0  0  0  0  0  0  0  0
   11.6710   -1.0956   22.7082 C   0  0  0  0  0  0  0  0  0  0  0  0
   12.9372   -0.5226   22.6090 C   0  0  0  0  0  0  0  0  0  0  0  0
   14.3193   -1.5681   22.4836 Cl  0  0  0  0  0  0  0  0  0  0  0  0
   13.1302    0.8516   22.6482 C   0  0  0  0  0  0  0  0  0  0  0  0
   12.0226    1.6922   22.7823 C   0  0  0  0  0  0  0  0  0  0  0  0
   12.1505    3.1368   23.1092 C   0  0  0  0  0  0  0  0  0  0  0  0
   13.0171    4.0333   22.4736 C   0  0  0  0  0  0  0  0  0  0  0  0
   13.1415    5.3447   22.9400 C   0  0  0  0  0  0  0  0  0  0  0  0
   12.3846    5.7531   24.0410 C   0  0  0  0  0  0  0  0  0  0  0  0
   12.6745    7.2750   24.9055 S   0  0  0  0  0  0  0  0  0  0  0  0
   11.1480    7.6790   25.4629 N   0  0  0  0  0  0  0  0  0  0  0  0
   13.4448    6.9896   26.1026 O   0  0  0  0  0  0  0  0  0  0  0  0
   13.1242    8.2698   23.9519 O   0  0  0  0  0  0  0  0  0  0  0  0
   11.4622    4.8958   24.6223 C   0  0  0  0  0  0  0  0  0  0  0  0
   11.3561    3.6062   24.1610 C   0  0  0  0  0  0  0  0  0  0  0  0
   10.7540    1.1204   22.7902 C   0  0  0  0  0  0  0  0  0  0  0  0
    9.4557   -2.8269   23.2275 H   0  0  0  0  0  0  0  0  0  0  0  0
    7.8686   -2.2087   23.7673 H   0  0  0  0  0  0  0  0  0  0  0  0
    9.3319   -1.8433   24.7071 H   0  0  0  0  0  0  0  0  0  0  0  0
    8.5933    0.0933   23.4466 H   0  0  0  0  0  0  0  0  0  0  0  0
    8.8902   -1.2385   20.8385 H   0  0  0  0  0  0  0  0  0  0  0  0
    5.6436    0.2717   20.1404 H   0  0  0  0  0  0  0  0  0  0  0  0
    7.2516    0.0029   19.3996 H   0  0  0  0  0  0  0  0  0  0  0  0
    5.1275   -1.5171   16.8613 H   0  0  0  0  0  0  0  0  0  0  0  0
    6.6501   -0.8774   16.6800 H   0  0  0  0  0  0  0  0  0  0  0  0
   11.5760   -2.1784   22.7375 H   0  0  0  0  0  0  0  0  0  0  0  0
   14.1338    1.2640   22.6173 H   0  0  0  0  0  0  0  0  0  0  0  0
   13.5527    3.7055   21.5833 H   0  0  0  0  0  0  0  0  0  0  0  0
   13.8339    6.0412   22.4767 H   0  0  0  0  0  0  0  0  0  0  0  0
   10.7211    8.4212   24.9227 H   0  0  0  0  0  0  0  0  0  0  0  0
   11.1750    7.8916   26.4545 H   0  0  0  0  0  0  0  0  0  0  0  0
   10.8300    5.2453   25.4287 H   0  0  0  0  0  0  0  0  0  0  0  0
   10.6535    2.9402   24.6483 H   0  0  0  0  0  0  0  0  0  0  0  0
    9.8796    1.7708   22.8260 H   0  0  0  0  0  0  0  0  0  0  0  0
  1  2  1  0
  2  3  1  0
  3  4  1  0
  4  5  2  0
  4  6  1  0
  6  7  1  0
  7  8  1  0
  8  9  1  0
  8 10  2  0
  8 11  2  0
  2 12  1  0
 12 13  2  0
 13 14  1  0
 14 15  1  0
 14 16  2  0
 16 17  1  0
 17 18  1  0
 18 19  2  0
 19 20  1  0
 20 21  2  0
 21 22  1  0
 22 23  1  0
 22 24  2  0
 22 25  2  0
 21 26  1  0
 26 27  2  0
 17 28  2  0
 28 12  1  0
 27 18  1  0
  1 29  1  0
  1 30  1  0
  1 31  1  0
  2 32  1  1
  3 33  1  0
  6 34  1  0
  6 35  1  0
  9 36  1  0
  9 37  1  0
 13 38  1  0
 16 39  1  0
 19 40  1  0
 20 41  1  0
 23 42  1  0
 23 43  1  0
 26 44  1  0
 27 45  1  0
 28 46  1  0
M  END
$$$$
