
     RDKit          3D

 46 50  0  0  0  0  0  0  0  0999 V2000
  -14.6255   -4.0951  -22.1829 N   0  0  0  0  0  0  0  0  0  0  0  0
  -13.9259   -2.9750  -21.1631 S   0  0  0  0  0  0  0  0  0  0  0  0
  -13.0368   -3.6961  -20.2695 O   0  0  0  0  0  0  0  0  0  0  0  0
  -15.0046   -2.1653  -20.6230 O   0  0  0  0  0  0  0  0  0  0  0  0
  -12.9659   -2.0326  -22.3042 C   0  0  0  0  0  0  0  0  0  0  0  0
  -13.5788   -1.3545  -23.3568 C   0  0  0  0  0  0  0  0  0  0  0  0
  -12.7986   -0.6500  -24.2576 C   0  0  0  0  0  0  0  0  0  0  0  0
  -11.4127   -0.5907  -24.0894 C   0  0  0  0  0  0  0  0  0  0  0  0
  -10.8044   -1.2894  -23.0426 C   0  0  0  0  0  0  0  0  0  0  0  0
  -11.5934   -1.9872  -22.1368 C   0  0  0  0  0  0  0  0  0  0  0  0
   -9.3122   -1.2565  -22.8411 C   0  0  2  0  0  0  0  0  0  0  0  0
   -8.6256   -0.7082  -24.1060 C   0  0  0  0  0  0  0  0  0  0  0  0
   -9.3829    0.5192  -24.5807 C   0  0  0  0  0  0  0  0  0  0  0  0
  -10.7087    0.1619  -24.9767 O   0  0  0  0  0  0  0  0  0  0  0  0
   -8.7569   -2.5423  -22.4370 N   0  0  0  0  0  0  0  0  0  0  0  0
   -7.8460   -2.4339  -21.4133 C   0  0  0  0  0  0  0  0  0  0  0  0
   -7.0857   -3.2682  -20.9833 O   0  0  0  0  0  0  0  0  0  0  0  0
   -7.9702   -1.1223  -20.9234 N   0  0  0  0  0  0  0  0  0  0  0  0
   -7.0992   -0.5698  -19.9474 C   0  0  0  0  0  0  0  0  0  0  0  0
   -7.2925   -0.8838  -18.6342 C   0  0  0  0  0  0  0  0  0  0  0  0
   -6.5528   -0.3842  -17.6130 N   0  0  0  0  0  0  0  0  0  0  0  0
   -5.5966    0.4635  -17.9108 C   0  0  0  0  0  0  0  0  0  0  0  0
   -5.2797    0.8717  -19.2388 C   0  0  0  0  0  0  0  0  0  0  0  0
   -4.2762    1.8420  -19.5120 C   0  0  0  0  0  0  0  0  0  0  0  0
   -3.9748    2.1674  -20.8053 C   0  0  0  0  0  0  0  0  0  0  0  0
   -4.6350    1.5142  -21.8754 C   0  0  0  0  0  0  0  0  0  0  0  0
   -5.6273    0.5962  -21.6381 C   0  0  0  0  0  0  0  0  0  0  0  0
   -6.0091    0.2905  -20.3034 C   0  0  0  0  0  0  0  0  0  0  0  0
   -8.9432   -0.4030  -21.6158 C   0  0  0  0  0  0  0  0  0  0  0  0
   -9.3721    0.6710  -21.2881 O   0  0  0  0  0  0  0  0  0  0  0  0
  -15.4497   -4.4473  -21.6975 H   0  0  0  0  0  0  0  0  0  0  0  0
  -13.9899   -4.8722  -22.3318 H   0  0  0  0  0  0  0  0  0  0  0  0
  -14.6602   -1.3545  -23.4570 H   0  0  0  0  0  0  0  0  0  0  0  0
  -13.2520   -0.1350  -25.0929 H   0  0  0  0  0  0  0  0  0  0  0  0
  -11.1360   -2.4926  -21.2955 H   0  0  0  0  0  0  0  0  0  0  0  0
   -8.6490   -1.4873  -24.8775 H   0  0  0  0  0  0  0  0  0  0  0  0
   -7.5749   -0.4804  -23.8900 H   0  0  0  0  0  0  0  0  0  0  0  0
   -9.4185    1.2686  -23.7781 H   0  0  0  0  0  0  0  0  0  0  0  0
   -8.9179    0.9611  -25.4635 H   0  0  0  0  0  0  0  0  0  0  0  0
   -8.5919   -3.2615  -23.1265 H   0  0  0  0  0  0  0  0  0  0  0  0
   -8.1019   -1.5641  -18.3766 H   0  0  0  0  0  0  0  0  0  0  0  0
   -5.0265    0.8702  -17.0726 H   0  0  0  0  0  0  0  0  0  0  0  0
   -3.7594    2.3231  -18.6819 H   0  0  0  0  0  0  0  0  0  0  0  0
   -3.2083    2.9087  -21.0239 H   0  0  0  0  0  0  0  0  0  0  0  0
   -4.3766    1.7547  -22.9014 H   0  0  0  0  0  0  0  0  0  0  0  0
   -6.1087    0.0782  -22.4647 H   0  0  0  0  0  0  0  0  0  0  0  0
  1  2  1  0
  2  3  2  0
  2  4  2  0
  2  5  1  0
  5  6  2  0
  6  7  1  0
  7  8  2  0
  8  9  1  0
  9 10  2  0
  9 11  1  0
 11 12  1  0
 12 13  1  0
 13 14  1  0
 11 15  1  6
 15 16  1  0
 16 17  2  0
 16 18  1  0
 18 19  1  0
 19 20  2  0
 20 21  1  0
 21 22  2  0
 22 23  1  0
 23 24  2  0
 24 25  1  0
 25 26  2  0
 26 27  1  0
 27 28  2  0
 18 29  1  0
 29 30  2  0
 10  5  1  0
 29 11  1  0
 14  8  1  0
 28 19  1  0
 28 23  1  0
  1 31  1  0
  1 32  1  0
  6 33  1  0
  7 34  1  0
 10 35  1  0
 12 36  1  0
 12 37  1  0
 13 38  1  0
 13 39  1  0
 15 40  1  0
 20 41  1  0
 22 42  1  0
 24 43  1  0
 25 44  1  0
 26 45  1  0
 27 46  1  0
M  END
$$$$
