
     RDKit          3D

 60 64  0  0  0  0  0  0  0  0999 V2000
    7.2917    4.6516   22.3773 C   0  0  0  0  0  0  0  0  0  0  0  0
    8.0989    3.7326   23.1531 N   0  0  0  0  0  0  0  0  0  0  0  0
    7.8419    3.5875   24.4718 C   0  0  0  0  0  0  0  0  0  0  0  0
    7.0672    4.3024   25.0948 O   0  0  0  0  0  0  0  0  0  0  0  0
    8.5576    2.4617   25.2266 C   0  0  0  0  0  0  0  0  0  0  0  0
    9.3916    1.5731   24.4581 N   0  0  0  0  0  0  0  0  0  0  0  0
    8.9463    0.2117   24.2119 C   0  0  0  0  0  0  0  0  0  0  0  0
    9.4889   -0.3291   22.8649 C   0  0  2  0  0  0  0  0  0  0  0  0
    8.8415    0.4814   21.7122 C   0  0  0  0  0  0  0  0  0  0  0  0
    9.0938    1.6368   21.4143 O   0  0  0  0  0  0  0  0  0  0  0  0
    7.8883   -0.2924   21.0970 N   0  0  0  0  0  0  0  0  0  0  0  0
    7.0021    0.1886   20.0903 C   0  0  0  0  0  0  0  0  0  0  0  0
    7.2085   -0.1872   18.7858 C   0  0  0  0  0  0  0  0  0  0  0  0
    6.4055    0.1566   17.7494 N   0  0  0  0  0  0  0  0  0  0  0  0
    5.3635    0.9079   18.0084 C   0  0  0  0  0  0  0  0  0  0  0  0
    5.0343    1.3808   19.3110 C   0  0  0  0  0  0  0  0  0  0  0  0
    3.9305    2.2461   19.5329 C   0  0  0  0  0  0  0  0  0  0  0  0
    3.6151    2.6532   20.7980 C   0  0  0  0  0  0  0  0  0  0  0  0
    4.3818    2.2174   21.9008 C   0  0  0  0  0  0  0  0  0  0  0  0
    5.4824    1.4177   21.7083 C   0  0  0  0  0  0  0  0  0  0  0  0
    5.8556    0.9949   20.3999 C   0  0  0  0  0  0  0  0  0  0  0  0
    7.6549   -1.5439   21.7929 C   0  0  0  0  0  0  0  0  0  0  0  0
    8.9801   -1.7573   22.5295 C   0  0  2  0  0  0  0  0  0  0  0  0
    8.8764   -2.7394   23.6943 C   0  0  0  0  0  0  0  0  0  0  0  0
   10.1200   -2.9015   24.3491 O   0  0  0  0  0  0  0  0  0  0  0  0
   10.8553   -4.0250   23.9268 C   0  0  0  0  0  0  0  0  0  0  0  0
   10.9956   -0.1722   22.9327 C   0  0  0  0  0  0  0  0  0  0  0  0
   11.8992   -1.1132   22.4316 C   0  0  0  0  0  0  0  0  0  0  0  0
   13.2456   -0.8054   22.3608 C   0  0  0  0  0  0  0  0  0  0  0  0
   14.3083   -1.9352   21.5608 Cl  0  0  0  0  0  0  0  0  0  0  0  0
   13.7628    0.3961   22.8452 C   0  0  0  0  0  0  0  0  0  0  0  0
   12.8864    1.2957   23.4150 C   0  0  0  0  0  0  0  0  0  0  0  0
   11.5259    1.0065   23.4766 C   0  0  0  0  0  0  0  0  0  0  0  0
   10.6382    2.0160   24.1196 C   0  0  0  0  0  0  0  0  0  0  0  0
   10.9990    3.1726   24.3174 O   0  0  0  0  0  0  0  0  0  0  0  0
    6.2397    4.5501   22.6649 H   0  0  0  0  0  0  0  0  0  0  0  0
    7.5669    5.7052   22.5202 H   0  0  0  0  0  0  0  0  0  0  0  0
    7.3994    4.3938   21.3185 H   0  0  0  0  0  0  0  0  0  0  0  0
    8.6375    3.0452   22.6331 H   0  0  0  0  0  0  0  0  0  0  0  0
    7.7725    1.8777   25.7125 H   0  0  0  0  0  0  0  0  0  0  0  0
    9.1444    2.9289   26.0221 H   0  0  0  0  0  0  0  0  0  0  0  0
    9.2856   -0.4560   25.0152 H   0  0  0  0  0  0  0  0  0  0  0  0
    7.8508    0.2064   24.1925 H   0  0  0  0  0  0  0  0  0  0  0  0
    8.0774   -0.7928   18.5288 H   0  0  0  0  0  0  0  0  0  0  0  0
    4.7306    1.2052   17.1708 H   0  0  0  0  0  0  0  0  0  0  0  0
    3.3497    2.5741   18.6745 H   0  0  0  0  0  0  0  0  0  0  0  0
    2.7749    3.3184   20.9660 H   0  0  0  0  0  0  0  0  0  0  0  0
    4.1233    2.5489   22.9039 H   0  0  0  0  0  0  0  0  0  0  0  0
    6.0774    1.1118   22.5643 H   0  0  0  0  0  0  0  0  0  0  0  0
    7.4271   -2.3287   21.0670 H   0  0  0  0  0  0  0  0  0  0  0  0
    6.8073   -1.4711   22.4986 H   0  0  0  0  0  0  0  0  0  0  0  0
    9.6758   -2.1597   21.7873 H   0  0  0  0  0  0  0  0  0  0  0  0
    8.1799   -2.3427   24.4430 H   0  0  0  0  0  0  0  0  0  0  0  0
    8.4735   -3.7130   23.3609 H   0  0  0  0  0  0  0  0  0  0  0  0
   11.8326   -3.9733   24.4140 H   0  0  0  0  0  0  0  0  0  0  0  0
   11.0116   -4.0492   22.8359 H   0  0  0  0  0  0  0  0  0  0  0  0
   10.3635   -4.9657   24.2248 H   0  0  0  0  0  0  0  0  0  0  0  0
   11.5770   -2.0726   22.0440 H   0  0  0  0  0  0  0  0  0  0  0  0
   14.8226    0.6095   22.7502 H   0  0  0  0  0  0  0  0  0  0  0  0
   13.2331    2.2492   23.7991 H   0  0  0  0  0  0  0  0  0  0  0  0
  1  2  1  0
  2  3  1  0
  3  4  2  0
  3  5  1  0
  5  6  1  0
  6  7  1  0
  8  7  1  1
  8  9  1  0
  9 10  2  0
  9 11  1  0
 11 12  1  0
 12 13  2  0
 13 14  1  0
 14 15  2  0
 15 16  1  0
 16 17  2  0
 17 18  1  0
 18 19  2  0
 19 20  1  0
 20 21  2  0
 11 22  1  0
 22 23  1  0
 23 24  1  0
 24 25  1  0
 25 26  1  0
  8 27  1  0
 27 28  2  0
 28 29  1  0
 29 30  1  0
 29 31  2  0
 31 32  1  0
 32 33  2  0
 33 34  1  0
 34 35  2  0
 34  6  1  0
 23  8  1  0
 33 27  1  0
 21 12  1  0
 21 16  1  0
  1 36  1  0
  1 37  1  0
  1 38  1  0
  2 39  1  0
  5 40  1  0
  5 41  1  0
  7 42  1  0
  7 43  1  0
 13 44  1  0
 15 45  1  0
 17 46  1  0
 18 47  1  0
 19 48  1  0
 20 49  1  0
 22 50  1  0
 22 51  1  0
 23 52  1  6
 24 53  1  0
 24 54  1  0
 26 55  1  0
 26 56  1  0
 26 57  1  0
 28 58  1  0
 31 59  1  0
 32 60  1  0
M  END
$$$$
