complex-MERS
  PyMOL184          3D                             0

 43 47  0  0  0  0  0  0  0  0999 V2000
   10.6020   -0.1620   23.6280 H   0  0  0  0  0  0  0  0  0  0  0  0
    8.4890    0.5610   22.1460 N   0  0  0  0  0  0  0  0  0  0  0  0
   12.5090   -1.7370   23.9320 C   0  0  0  0  0  0  0  0  0  0  0  0
    7.5180    2.0650   20.7050 O   0  0  0  0  0  0  0  0  0  0  0  0
   12.8990   -1.2400   22.3080 Cl  0  0  0  0  0  0  0  0  0  0  0  0
   13.5470   -2.1980   24.7260 C   0  0  0  0  0  0  0  0  0  0  0  0
    6.8530   -0.1620   20.8630 N   0  0  0  0  0  0  0  0  0  0  0  0
    6.5260   -2.2870   21.7700 O   0  0  0  0  0  0  0  0  0  0  0  0
   13.2690   -2.6650   26.0010 C   0  0  0  0  0  0  0  0  0  0  0  0
    5.7370    0.1330   17.4390 N   0  0  0  0  0  0  0  0  0  0  0  0
   11.9740   -2.6660   26.4670 C   0  0  0  0  0  0  0  0  0  0  0  0
   10.9440   -2.1820   25.6740 C   0  0  0  0  0  0  0  0  0  0  0  0
   11.1890   -1.7020   24.3880 C   0  0  0  0  0  0  0  0  0  0  0  0
   10.0580   -1.1050   23.5630 C   0  0  0  0  0  0  0  0  0  0  0  0
    8.5730   -1.2000   23.9970 C   0  0  0  0  0  0  0  0  0  0  0  0
    8.3790   -0.8540   22.4980 C   0  0  0  0  0  0  0  0  0  0  0  0
    9.6370   -1.7070   22.1980 C   0  0  0  0  0  0  0  0  0  0  0  0
    7.6370    0.9470   21.1780 C   0  0  0  0  0  0  0  0  0  0  0  0
    7.1510   -1.2460   21.6900 C   0  0  0  0  0  0  0  0  0  0  0  0
    5.8210   -0.1620   19.8610 C   0  0  0  0  0  0  0  0  0  0  0  0
    6.2110   -0.4330   18.5510 C   0  0  0  0  0  0  0  0  0  0  0  0
    4.7810    1.0280   17.5800 C   0  0  0  0  0  0  0  0  0  0  0  0
    4.2210    1.3900   18.8260 C   0  0  0  0  0  0  0  0  0  0  0  0
    3.1610    2.3220   18.9520 C   0  0  0  0  0  0  0  0  0  0  0  0
    2.6340    2.6120   20.1770 C   0  0  0  0  0  0  0  0  0  0  0  0
    3.1280    2.0060   21.3210 C   0  0  0  0  0  0  0  0  0  0  0  0
    4.1550    1.1090   21.2470 C   0  0  0  0  0  0  0  0  0  0  0  0
    4.7400    0.7680   20.0000 C   0  0  0  0  0  0  0  0  0  0  0  0
    9.1380    1.1840   22.5830 H   0  0  0  0  0  0  0  0  0  0  0  0
   14.5610   -2.1950   24.3550 H   0  0  0  0  0  0  0  0  0  0  0  0
   14.0690   -3.0280   26.6290 H   0  0  0  0  0  0  0  0  0  0  0  0
   11.7590   -3.0440   27.4550 H   0  0  0  0  0  0  0  0  0  0  0  0
    9.9350   -2.1780   26.0590 H   0  0  0  0  0  0  0  0  0  0  0  0
    8.2240   -2.1930   24.3150 H   0  0  0  0  0  0  0  0  0  0  0  0
    8.2290   -0.4430   24.7170 H   0  0  0  0  0  0  0  0  0  0  0  0
   10.2350   -1.4000   21.3270 H   0  0  0  0  0  0  0  0  0  0  0  0
    9.4900   -2.7970   22.1740 H   0  0  0  0  0  0  0  0  0  0  0  0
    6.9780   -1.1830   18.4210 H   0  0  0  0  0  0  0  0  0  0  0  0
    4.4020    1.5120   16.6920 H   0  0  0  0  0  0  0  0  0  0  0  0
    2.7670    2.8080   18.0710 H   0  0  0  0  0  0  0  0  0  0  0  0
    1.8230    3.3210   20.2550 H   0  0  0  0  0  0  0  0  0  0  0  0
    2.6960    2.2450   22.2820 H   0  0  0  0  0  0  0  0  0  0  0  0
    4.5280    0.6520   22.1520 H   0  0  0  0  0  0  0  0  0  0  0  0
  1 14  1  0  0  0  0
  2 16  1  0  0  0  0
  2 18  1  0  0  0  0
  2 29  1  0  0  0  0
  3  5  1  0  0  0  0
  3  6  4  0  0  0  0
  3 13  4  0  0  0  0
  4 18  2  0  0  0  0
  6  9  4  0  0  0  0
  6 30  1  0  0  0  0
  7 18  1  0  0  0  0
  7 19  1  0  0  0  0
  7 20  1  0  0  0  0
  8 19  2  0  0  0  0
  9 11  4  0  0  0  0
  9 31  1  0  0  0  0
 10 21  1  0  0  0  0
 10 22  1  0  0  0  0
 11 12  4  0  0  0  0
 11 32  1  0  0  0  0
 12 13  4  0  0  0  0
 12 33  1  0  0  0  0
 13 14  1  0  0  0  0
 14 15  1  0  0  0  0
 14 17  1  0  0  0  0
 15 16  1  0  0  0  0
 15 34  1  0  0  0  0
 15 35  1  0  0  0  0
 16 17  1  0  0  0  0
 16 19  1  0  0  0  0
 17 36  1  0  0  0  0
 17 37  1  0  0  0  0
 20 21  1  0  0  0  0
 20 28  1  0  0  0  0
 21 38  1  0  0  0  0
 22 23  1  0  0  0  0
 22 39  1  0  0  0  0
 23 24  4  0  0  0  0
 23 28  4  0  0  0  0
 24 25  4  0  0  0  0
 24 40  1  0  0  0  0
 25 26  4  0  0  0  0
 25 41  1  0  0  0  0
 26 27  4  0  0  0  0
 26 42  1  0  0  0  0
 27 28  4  0  0  0  0
 27 43  1  0  0  0  0
M  END
$$$$
