
     RDKit          3D

 55 60  0  0  0  0  0  0  0  0999 V2000
   -8.4188   -3.8348  -23.7088 C   0  0  0  0  0  0  0  0  0  0  0  0
   -8.5244   -2.8424  -22.5555 C   0  0  1  0  0  0  0  0  0  0  0  0
   -7.2099   -2.5843  -21.8018 C   0  0  0  0  0  0  0  0  0  0  0  0
   -7.4872   -1.3283  -21.1410 N   0  0  0  0  0  0  0  0  0  0  0  0
   -6.6440   -0.8162  -20.1203 C   0  0  0  0  0  0  0  0  0  0  0  0
   -6.8745   -1.1640  -18.8118 C   0  0  0  0  0  0  0  0  0  0  0  0
   -6.1092   -0.7698  -17.7644 N   0  0  0  0  0  0  0  0  0  0  0  0
   -5.0870    0.0108  -18.0108 C   0  0  0  0  0  0  0  0  0  0  0  0
   -4.7488    0.4699  -19.3164 C   0  0  0  0  0  0  0  0  0  0  0  0
   -3.6632    1.3565  -19.5363 C   0  0  0  0  0  0  0  0  0  0  0  0
   -3.3239    1.7585  -20.7952 C   0  0  0  0  0  0  0  0  0  0  0  0
   -4.0627    1.2835  -21.8999 C   0  0  0  0  0  0  0  0  0  0  0  0
   -5.1497    0.4590  -21.7171 C   0  0  0  0  0  0  0  0  0  0  0  0
   -5.5239    0.0279  -20.4148 C   0  0  0  0  0  0  0  0  0  0  0  0
   -8.4797   -0.5933  -21.7653 C   0  0  0  0  0  0  0  0  0  0  0  0
   -8.8217    0.5188  -21.4406 O   0  0  0  0  0  0  0  0  0  0  0  0
   -9.0628   -1.4341  -22.9297 C   0  0  1  0  0  0  0  0  0  0  0  0
   -8.4992   -0.9058  -24.2766 C   0  0  0  0  0  0  0  0  0  0  0  0
   -8.9775    0.4384  -24.5819 N   0  0  0  0  0  0  0  0  0  0  0  0
   -8.1481    1.3703  -25.3141 C   0  0  0  0  0  0  0  0  0  0  0  0
   -7.6832    2.5332  -24.4883 C   0  0  0  0  0  0  0  0  0  0  0  0
   -7.6792    3.8108  -24.9447 N   0  0  0  0  0  0  0  0  0  0  0  0
   -7.1357    4.4834  -23.9514 C   0  0  0  0  0  0  0  0  0  0  0  0
   -6.8172    3.6322  -22.9609 N   0  0  0  0  0  0  0  0  0  0  0  0
   -7.1547    2.3705  -23.2845 N   0  0  0  0  0  0  0  0  0  0  0  0
  -10.2253    0.8778  -24.2454 C   0  0  0  0  0  0  0  0  0  0  0  0
  -10.5997    2.0279  -24.4435 O   0  0  0  0  0  0  0  0  0  0  0  0
  -11.1140   -0.1462  -23.6222 C   0  0  0  0  0  0  0  0  0  0  0  0
  -12.4819    0.1206  -23.5958 C   0  0  0  0  0  0  0  0  0  0  0  0
  -13.3573   -0.7936  -23.0394 C   0  0  0  0  0  0  0  0  0  0  0  0
  -12.8272   -1.9687  -22.5163 C   0  0  0  0  0  0  0  0  0  0  0  0
  -13.6616   -2.8513  -21.9346 F   0  0  0  0  0  0  0  0  0  0  0  0
  -11.4762   -2.2582  -22.5460 C   0  0  0  0  0  0  0  0  0  0  0  0
  -10.5775   -1.3093  -23.0460 C   0  0  0  0  0  0  0  0  0  0  0  0
   -9.3779   -3.9195  -24.2356 H   0  0  0  0  0  0  0  0  0  0  0  0
   -7.6601   -3.5131  -24.4340 H   0  0  0  0  0  0  0  0  0  0  0  0
   -8.1305   -4.8342  -23.3667 H   0  0  0  0  0  0  0  0  0  0  0  0
   -9.2239   -3.2139  -21.7988 H   0  0  0  0  0  0  0  0  0  0  0  0
   -6.9451   -3.3582  -21.0713 H   0  0  0  0  0  0  0  0  0  0  0  0
   -6.3544   -2.4860  -22.4892 H   0  0  0  0  0  0  0  0  0  0  0  0
   -7.7520   -1.7545  -18.5546 H   0  0  0  0  0  0  0  0  0  0  0  0
   -4.4902    0.3428  -17.1580 H   0  0  0  0  0  0  0  0  0  0  0  0
   -3.1276    1.7223  -18.6675 H   0  0  0  0  0  0  0  0  0  0  0  0
   -2.5065    2.4604  -20.9479 H   0  0  0  0  0  0  0  0  0  0  0  0
   -3.7780    1.5888  -22.9009 H   0  0  0  0  0  0  0  0  0  0  0  0
   -5.7403    0.1550  -22.5766 H   0  0  0  0  0  0  0  0  0  0  0  0
   -7.4025   -0.8865  -24.2321 H   0  0  0  0  0  0  0  0  0  0  0  0
   -8.8031   -1.6089  -25.0648 H   0  0  0  0  0  0  0  0  0  0  0  0
   -7.2775    0.8110  -25.6716 H   0  0  0  0  0  0  0  0  0  0  0  0
   -8.7017    1.7617  -26.1718 H   0  0  0  0  0  0  0  0  0  0  0  0
   -6.9711    5.5559  -23.9119 H   0  0  0  0  0  0  0  0  0  0  0  0
   -6.3971    3.8388  -22.0727 H   0  0  0  0  0  0  0  0  0  0  0  0
  -12.8174    1.0757  -23.9911 H   0  0  0  0  0  0  0  0  0  0  0  0
  -14.4235   -0.6132  -22.9466 H   0  0  0  0  0  0  0  0  0  0  0  0
  -11.1546   -3.2087  -22.1362 H   0  0  0  0  0  0  0  0  0  0  0  0
  1  2  1  0
  2  3  1  0
  3  4  1  0
  4  5  1  0
  5  6  2  0
  6  7  1  0
  7  8  2  0
  8  9  1  0
  9 10  2  0
 10 11  1  0
 11 12  2  0
 12 13  1  0
 13 14  2  0
  4 15  1  0
 15 16  2  0
 15 17  1  0
 17 18  1  6
 18 19  1  0
 19 20  1  0
 20 21  1  0
 21 22  1  0
 22 23  2  0
 23 24  1  0
 24 25  1  0
 19 26  1  0
 26 27  2  0
 26 28  1  0
 28 29  2  0
 29 30  1  0
 30 31  2  0
 31 32  1  0
 31 33  1  0
 33 34  2  0
 17  2  1  0
 25 21  2  0
 34 28  1  0
 14  5  1  0
 34 17  1  0
 14  9  1  0
  1 35  1  0
  1 36  1  0
  1 37  1  0
  2 38  1  1
  3 39  1  0
  3 40  1  0
  6 41  1  0
  8 42  1  0
 10 43  1  0
 11 44  1  0
 12 45  1  0
 13 46  1  0
 18 47  1  0
 18 48  1  0
 20 49  1  0
 20 50  1  0
 23 51  1  0
 24 52  1  0
 29 53  1  0
 30 54  1  0
 33 55  1  0
M  END
