
     RDKit          3D

 57 62  0  0  0  0  0  0  0  0999 V2000
   -8.4168   -3.8202  -23.7210 C   0  0  0  0  0  0  0  0  0  0  0  0
   -8.5392   -2.8340  -22.5619 C   0  0  1  0  0  0  0  0  0  0  0  0
   -7.2210   -2.5731  -21.8072 C   0  0  0  0  0  0  0  0  0  0  0  0
   -7.4946   -1.3044  -21.1475 N   0  0  0  0  0  0  0  0  0  0  0  0
   -6.6746   -0.7616  -20.1161 C   0  0  0  0  0  0  0  0  0  0  0  0
   -6.9116   -1.1029  -18.8078 C   0  0  0  0  0  0  0  0  0  0  0  0
   -6.1523   -0.7080  -17.7551 N   0  0  0  0  0  0  0  0  0  0  0  0
   -5.1355    0.0822  -17.9969 C   0  0  0  0  0  0  0  0  0  0  0  0
   -4.7671    0.5150  -19.3063 C   0  0  0  0  0  0  0  0  0  0  0  0
   -3.6728    1.3928  -19.5297 C   0  0  0  0  0  0  0  0  0  0  0  0
   -3.3232    1.7656  -20.7975 C   0  0  0  0  0  0  0  0  0  0  0  0
   -4.0510    1.2743  -21.9070 C   0  0  0  0  0  0  0  0  0  0  0  0
   -5.1432    0.4625  -21.7156 C   0  0  0  0  0  0  0  0  0  0  0  0
   -5.5404    0.0704  -20.4073 C   0  0  0  0  0  0  0  0  0  0  0  0
   -8.4877   -0.5717  -21.7705 C   0  0  0  0  0  0  0  0  0  0  0  0
   -8.7940    0.5642  -21.4802 O   0  0  0  0  0  0  0  0  0  0  0  0
   -9.0868   -1.4243  -22.9242 C   0  0  1  0  0  0  0  0  0  0  0  0
   -8.5342   -0.9064  -24.2683 C   0  0  0  0  0  0  0  0  0  0  0  0
   -9.0058    0.4331  -24.5611 N   0  0  0  0  0  0  0  0  0  0  0  0
   -8.1377    1.3121  -25.3139 C   0  0  0  0  0  0  0  0  0  0  0  0
   -7.2910    2.2341  -24.4795 C   0  0  0  0  0  0  0  0  0  0  0  0
   -6.0136    2.6431  -24.6994 C   0  0  0  0  0  0  0  0  0  0  0  0
   -5.7007    3.5682  -23.7233 N   0  0  0  0  0  0  0  0  0  0  0  0
   -6.7625    3.7020  -22.9155 C   0  0  0  0  0  0  0  0  0  0  0  0
   -7.7447    2.9026  -23.3568 N   0  0  0  0  0  0  0  0  0  0  0  0
  -10.2592    0.8742  -24.2565 C   0  0  0  0  0  0  0  0  0  0  0  0
  -10.6227    2.0243  -24.4961 O   0  0  0  0  0  0  0  0  0  0  0  0
  -11.1471   -0.1317  -23.5942 C   0  0  0  0  0  0  0  0  0  0  0  0
  -12.5184    0.1165  -23.5618 C   0  0  0  0  0  0  0  0  0  0  0  0
  -13.3798   -0.7830  -22.9632 C   0  0  0  0  0  0  0  0  0  0  0  0
  -12.8274   -1.9393  -22.4212 C   0  0  0  0  0  0  0  0  0  0  0  0
  -13.6230   -2.7716  -21.7246 F   0  0  0  0  0  0  0  0  0  0  0  0
  -11.4769   -2.2243  -22.4798 C   0  0  0  0  0  0  0  0  0  0  0  0
  -10.5967   -1.2891  -23.0223 C   0  0  0  0  0  0  0  0  0  0  0  0
   -9.3665   -3.9025  -24.2616 H   0  0  0  0  0  0  0  0  0  0  0  0
   -7.6567   -3.4853  -24.4395 H   0  0  0  0  0  0  0  0  0  0  0  0
   -8.1354   -4.8198  -23.3698 H   0  0  0  0  0  0  0  0  0  0  0  0
   -9.2351   -3.2284  -21.8148 H   0  0  0  0  0  0  0  0  0  0  0  0
   -6.3690   -2.5099  -22.5087 H   0  0  0  0  0  0  0  0  0  0  0  0
   -6.9643   -3.3420  -21.0689 H   0  0  0  0  0  0  0  0  0  0  0  0
   -7.7724   -1.7202  -18.5579 H   0  0  0  0  0  0  0  0  0  0  0  0
   -4.6084    0.4762  -17.1275 H   0  0  0  0  0  0  0  0  0  0  0  0
   -3.1404    1.7664  -18.6590 H   0  0  0  0  0  0  0  0  0  0  0  0
   -2.4885    2.4452  -20.9538 H   0  0  0  0  0  0  0  0  0  0  0  0
   -3.7525    1.5524  -22.9142 H   0  0  0  0  0  0  0  0  0  0  0  0
   -5.7186    0.0962  -22.5608 H   0  0  0  0  0  0  0  0  0  0  0  0
   -7.4425   -0.8639  -24.2254 H   0  0  0  0  0  0  0  0  0  0  0  0
   -8.8366   -1.6024  -25.0630 H   0  0  0  0  0  0  0  0  0  0  0  0
   -7.4595    0.6971  -25.9147 H   0  0  0  0  0  0  0  0  0  0  0  0
   -8.7843    1.8785  -25.9958 H   0  0  0  0  0  0  0  0  0  0  0  0
   -5.2870    2.3530  -25.4489 H   0  0  0  0  0  0  0  0  0  0  0  0
   -4.7977    4.0273  -23.6209 H   0  0  0  0  0  0  0  0  0  0  0  0
   -6.8008    4.3414  -22.0536 H   0  0  0  0  0  0  0  0  0  0  0  0
   -8.6643    2.7693  -22.9317 H   0  0  0  0  0  0  0  0  0  0  0  0
  -12.8641    1.0379  -24.0176 H   0  0  0  0  0  0  0  0  0  0  0  0
  -14.4400   -0.5831  -22.8399 H   0  0  0  0  0  0  0  0  0  0  0  0
  -11.1129   -3.1070  -21.9658 H   0  0  0  0  0  0  0  0  0  0  0  0
  1  2  1  0
  2  3  1  0
  3  4  1  0
  4  5  1  0
  5  6  2  0
  6  7  1  0
  7  8  2  0
  8  9  1  0
  9 10  2  0
 10 11  1  0
 11 12  2  0
 12 13  1  0
 13 14  2  0
  4 15  1  0
 15 16  2  0
 15 17  1  0
 17 18  1  6
 18 19  1  0
 19 20  1  0
 20 21  1  0
 21 22  2  0
 22 23  1  0
 23 24  2  0
 24 25  1  0
 19 26  1  0
 26 27  2  0
 26 28  1  0
 28 29  2  0
 29 30  1  0
 30 31  2  0
 31 32  1  0
 31 33  1  0
 33 34  2  0
 17  2  1  0
 25 21  1  0
 34 28  1  0
 14  5  1  0
 34 17  1  0
 14  9  1  0
  1 35  1  0
  1 36  1  0
  1 37  1  0
  2 38  1  1
  3 39  1  0
  3 40  1  0
  6 41  1  0
  8 42  1  0
 10 43  1  0
 11 44  1  0
 12 45  1  0
 13 46  1  0
 18 47  1  0
 18 48  1  0
 20 49  1  0
 20 50  1  0
 22 51  1  0
 23 52  1  0
 24 53  1  0
 25 54  1  0
 29 55  1  0
 30 56  1  0
 33 57  1  0
M  CHG  1  23   1
M  END
