
     RDKit          3D

 36 38  0  0  0  0  0  0  0  0999 V2000
   -8.1581   -0.2472  -21.4184 O   0  0  0  0  0  0  0  0  0  0  0  0
   -7.6777   -1.3155  -21.7162 C   0  0  0  0  0  0  0  0  0  0  0  0
   -6.6508   -2.0370  -20.8463 C   0  0  0  0  0  0  0  0  0  0  0  0
   -5.9074   -1.1467  -19.8811 C   0  0  0  0  0  0  0  0  0  0  0  0
   -6.2640   -1.1225  -18.5597 C   0  0  0  0  0  0  0  0  0  0  0  0
   -5.6179   -0.4502  -17.5692 N   0  0  0  0  0  0  0  0  0  0  0  0
   -4.5771    0.2681  -17.9225 C   0  0  0  0  0  0  0  0  0  0  0  0
   -4.1064    0.3768  -19.2625 C   0  0  0  0  0  0  0  0  0  0  0  0
   -2.9862    1.1826  -19.6032 C   0  0  0  0  0  0  0  0  0  0  0  0
   -2.5272    1.2347  -20.8915 C   0  0  0  0  0  0  0  0  0  0  0  0
   -3.1890    0.4996  -21.9046 C   0  0  0  0  0  0  0  0  0  0  0  0
   -4.2920   -0.2675  -21.6106 C   0  0  0  0  0  0  0  0  0  0  0  0
   -4.7827   -0.3556  -20.2776 C   0  0  0  0  0  0  0  0  0  0  0  0
   -7.9916   -1.9573  -22.9117 N   0  0  0  0  0  0  0  0  0  0  0  0
   -8.2934   -3.3823  -22.9201 C   0  0  0  0  0  0  0  0  0  0  0  0
   -9.5941   -3.7585  -22.2468 C   0  0  0  0  0  0  0  0  0  0  0  0
  -10.7498   -3.1023  -22.3945 C   0  0  0  0  0  0  0  0  0  0  0  0
  -11.0219   -1.8858  -23.1849 C   0  0  0  0  0  0  0  0  0  0  0  0
  -10.1745   -1.0724  -23.8253 C   0  0  0  0  0  0  0  0  0  0  0  0
   -8.6771   -1.1718  -23.9233 C   0  0  0  0  0  0  0  0  0  0  0  0
   -7.1748   -2.8156  -20.2754 H   0  0  0  0  0  0  0  0  0  0  0  0
   -5.9484   -2.5534  -21.5109 H   0  0  0  0  0  0  0  0  0  0  0  0
   -7.1308   -1.6958  -18.2325 H   0  0  0  0  0  0  0  0  0  0  0  0
   -4.1167    0.8738  -17.1399 H   0  0  0  0  0  0  0  0  0  0  0  0
   -2.5007    1.7518  -18.8104 H   0  0  0  0  0  0  0  0  0  0  0  0
   -1.6581    1.8405  -21.1433 H   0  0  0  0  0  0  0  0  0  0  0  0
   -2.8175    0.5491  -22.9256 H   0  0  0  0  0  0  0  0  0  0  0  0
   -4.7958   -0.8225  -22.4016 H   0  0  0  0  0  0  0  0  0  0  0  0
   -8.3283   -3.6749  -23.9755 H   0  0  0  0  0  0  0  0  0  0  0  0
   -7.4607   -3.9266  -22.4626 H   0  0  0  0  0  0  0  0  0  0  0  0
   -9.5716   -4.6356  -21.5977 H   0  0  0  0  0  0  0  0  0  0  0  0
  -11.6265   -3.4942  -21.8826 H   0  0  0  0  0  0  0  0  0  0  0  0
  -12.0774   -1.6281  -23.2433 H   0  0  0  0  0  0  0  0  0  0  0  0
  -10.5868   -0.2073  -24.3481 H   0  0  0  0  0  0  0  0  0  0  0  0
   -8.4125   -1.6263  -24.8860 H   0  0  0  0  0  0  0  0  0  0  0  0
   -8.2343   -0.1713  -23.9250 H   0  0  0  0  0  0  0  0  0  0  0  0
  1  2  2  0
  2  3  1  0
  3  4  1  0
  4  5  2  0
  5  6  1  0
  6  7  2  0
  7  8  1  0
  8  9  2  0
  9 10  1  0
 10 11  2  0
 11 12  1  0
 12 13  2  0
  2 14  1  0
 14 15  1  0
 15 16  1  0
 16 17  2  0
 17 18  1  0
 18 19  2  0
 19 20  1  0
 13  4  1  0
 20 14  1  0
 13  8  1  0
  3 21  1  0
  3 22  1  0
  5 23  1  0
  7 24  1  0
  9 25  1  0
 10 26  1  0
 11 27  1  0
 12 28  1  0
 15 29  1  0
 15 30  1  0
 16 31  1  0
 17 32  1  0
 18 33  1  0
 19 34  1  0
 20 35  1  0
 20 36  1  0
M  END
