
     RDKit          3D

 36 38  0  0  0  0  0  0  0  0999 V2000
    9.0245    0.6622   21.2264 O   0  0  0  0  0  0  0  0  0  0  0  0
    8.5612   -0.4095   21.5384 C   0  0  0  0  0  0  0  0  0  0  0  0
    7.5138   -1.1386   20.6999 C   0  0  0  0  0  0  0  0  0  0  0  0
    6.7351   -0.2539   19.7576 C   0  0  0  0  0  0  0  0  0  0  0  0
    7.0515   -0.2273   18.4260 C   0  0  0  0  0  0  0  0  0  0  0  0
    6.3709    0.4401   17.4555 N   0  0  0  0  0  0  0  0  0  0  0  0
    5.3360    1.1508   17.8401 C   0  0  0  0  0  0  0  0  0  0  0  0
    4.9052    1.2563   19.1937 C   0  0  0  0  0  0  0  0  0  0  0  0
    3.7899    2.0540   19.5681 C   0  0  0  0  0  0  0  0  0  0  0  0
    3.3696    2.1029   20.8697 C   0  0  0  0  0  0  0  0  0  0  0  0
    4.0670    1.3728   21.8623 C   0  0  0  0  0  0  0  0  0  0  0  0
    5.1662    0.6137   21.5351 C   0  0  0  0  0  0  0  0  0  0  0  0
    5.6171    0.5290   20.1879 C   0  0  0  0  0  0  0  0  0  0  0  0
    8.9157   -1.0488   22.7239 N   0  0  0  0  0  0  0  0  0  0  0  0
    9.2280   -2.4715   22.7231 C   0  0  0  0  0  0  0  0  0  0  0  0
   10.5105   -2.8383   22.0108 C   0  0  0  0  0  0  0  0  0  0  0  0
   11.6653   -2.1737   22.1236 C   0  0  0  0  0  0  0  0  0  0  0  0
   11.9522   -0.9551   22.9055 C   0  0  0  0  0  0  0  0  0  0  0  0
   11.1186   -0.1478   23.5713 C   0  0  0  0  0  0  0  0  0  0  0  0
    9.6256   -0.2581   23.7144 C   0  0  0  0  0  0  0  0  0  0  0  0
    8.0260   -1.9134   20.1134 H   0  0  0  0  0  0  0  0  0  0  0  0
    6.8355   -1.6600   21.3853 H   0  0  0  0  0  0  0  0  0  0  0  0
    7.9122   -0.7943   18.0728 H   0  0  0  0  0  0  0  0  0  0  0  0
    4.8478    1.7530   17.0718 H   0  0  0  0  0  0  0  0  0  0  0  0
    3.2766    2.6195   18.7904 H   0  0  0  0  0  0  0  0  0  0  0  0
    2.5041    2.7024   21.1476 H   0  0  0  0  0  0  0  0  0  0  0  0
    3.7262    1.4198   22.8940 H   0  0  0  0  0  0  0  0  0  0  0  0
    5.6977    0.0626   22.3105 H   0  0  0  0  0  0  0  0  0  0  0  0
    9.2968   -2.7637   23.7769 H   0  0  0  0  0  0  0  0  0  0  0  0
    8.3859   -3.0220   22.2909 H   0  0  0  0  0  0  0  0  0  0  0  0
   10.4748   -3.7157   21.3626 H   0  0  0  0  0  0  0  0  0  0  0  0
   12.5290   -2.5593   21.5855 H   0  0  0  0  0  0  0  0  0  0  0  0
   13.0071   -0.6897   22.9321 H   0  0  0  0  0  0  0  0  0  0  0  0
   11.5402    0.7203   24.0815 H   0  0  0  0  0  0  0  0  0  0  0  0
    9.3935   -0.7144   24.6846 H   0  0  0  0  0  0  0  0  0  0  0  0
    9.1758    0.7391   23.7295 H   0  0  0  0  0  0  0  0  0  0  0  0
  1  2  2  0
  2  3  1  0
  3  4  1  0
  4  5  2  0
  5  6  1  0
  6  7  2  0
  7  8  1  0
  8  9  2  0
  9 10  1  0
 10 11  2  0
 11 12  1  0
 12 13  2  0
  2 14  1  0
 14 15  1  0
 15 16  1  0
 16 17  2  0
 17 18  1  0
 18 19  2  0
 19 20  1  0
 13  4  1  0
 20 14  1  0
 13  8  1  0
  3 21  1  0
  3 22  1  0
  5 23  1  0
  7 24  1  0
  9 25  1  0
 10 26  1  0
 11 27  1  0
 12 28  1  0
 15 29  1  0
 15 30  1  0
 16 31  1  0
 17 32  1  0
 18 33  1  0
 19 34  1  0
 20 35  1  0
 20 36  1  0
M  END
$$$$
