LIG(A-305)
     RDKit          3D

 24 27  0  0  1  0  0  0  0  0999 V2000
    9.0836    0.6772   21.1752 O   0  0  0  0  0  0  0  0  0  0  0  0
    8.5514   -0.3958   21.4483 C   0  0  0  0  0  0  0  0  0  0  0  0
    9.0134   -1.2568   22.6252 C   0  0  2  0  0  0  0  0  0  0  0  0
    8.0726   -0.9857   23.8483 C   0  0  0  0  0  0  0  0  0  0  0  0
    8.7878   -0.4188   25.0672 C   0  0  0  0  0  0  0  0  0  0  0  0
    9.8309    0.5240   24.6762 N   0  0  0  0  0  0  0  0  0  0  0  0
   10.4675   -0.8840   22.8461 C   0  0  0  0  0  0  0  0  0  0  0  0
   10.7887    0.0809   23.8101 C   0  0  0  0  0  0  0  0  0  0  0  0
   12.0978    0.5538   23.9109 C   0  0  0  0  0  0  0  0  0  0  0  0
   13.0887    0.0476   23.0878 C   0  0  0  0  0  0  0  0  0  0  0  0
   11.4804   -1.4101   22.0480 C   0  0  0  0  0  0  0  0  0  0  0  0
   12.7714   -0.9493   22.1899 C   0  0  0  0  0  0  0  0  0  0  0  0
   14.0433   -1.7055   21.2667 Cl  0  0  0  0  0  0  0  0  0  0  0  0
    7.4873   -0.8876   20.7764 N   0  0  0  0  0  0  0  0  0  0  0  0
    6.7343   -0.2385   19.7824 C   0  0  0  0  0  0  0  0  0  0  0  0
    5.6114    0.5426   20.1906 C   0  0  0  0  0  0  0  0  0  0  0  0
    5.1466    0.6187   21.5286 C   0  0  0  0  0  0  0  0  0  0  0  0
    4.0587    1.3798   21.8517 C   0  0  0  0  0  0  0  0  0  0  0  0
    3.3787    2.0909   20.8758 C   0  0  0  0  0  0  0  0  0  0  0  0
    3.7896    2.0569   19.5757 C   0  0  0  0  0  0  0  0  0  0  0  0
    4.9165    1.2867   19.1966 C   0  0  0  0  0  0  0  0  0  0  0  0
    5.3953    1.2117   17.8666 C   0  0  0  0  0  0  0  0  0  0  0  0
    6.4402    0.4835   17.4885 N   0  0  0  0  0  0  0  0  0  0  0  0
    7.0712   -0.2245   18.4304 C   0  0  0  0  0  0  0  0  0  0  0  0
  1  2  2  0
  3  2  1  6
  2 14  1  0
  3  4  1  0
  3  7  1  0
  4  5  1  0
  5  6  1  0
  6  8  1  0
  7  8  2  0
  7 11  1  0
  8  9  1  0
  9 10  2  0
 10 12  1  0
 11 12  2  0
 12 13  1  0
 14 15  1  0
 15 16  1  0
 15 24  2  0
 16 17  2  0
 16 21  1  0
 17 18  1  0
 18 19  2  0
 19 20  1  0
 20 21  2  0
 21 22  1  0
 22 23  2  0
 23 24  1  0
M  END
$$$$
