
     RDKit          3D

 66 71  0  0  0  0  0  0  0  0999 V2000
    7.2877    4.6520   22.3720 C   0  0  0  0  0  0  0  0  0  0  0  0
    8.0846    3.7246   23.1498 N   0  0  0  0  0  0  0  0  0  0  0  0
    7.8335    3.5887   24.4718 C   0  0  0  0  0  0  0  0  0  0  0  0
    7.0637    4.3085   25.0919 O   0  0  0  0  0  0  0  0  0  0  0  0
    8.5535    2.4633   25.2252 C   0  0  0  0  0  0  0  0  0  0  0  0
    9.3860    1.5794   24.4496 N   0  0  0  0  0  0  0  0  0  0  0  0
    8.9457    0.2145   24.2090 C   0  0  0  0  0  0  0  0  0  0  0  0
    9.4938   -0.3335   22.8656 C   0  0  2  0  0  0  0  0  0  0  0  0
    8.8449    0.4769   21.7122 C   0  0  0  0  0  0  0  0  0  0  0  0
    9.0946    1.6311   21.4114 O   0  0  0  0  0  0  0  0  0  0  0  0
    7.8877   -0.2943   21.1019 N   0  0  0  0  0  0  0  0  0  0  0  0
    7.0045    0.1878   20.0931 C   0  0  0  0  0  0  0  0  0  0  0  0
    7.2109   -0.1874   18.7884 C   0  0  0  0  0  0  0  0  0  0  0  0
    6.4089    0.1569   17.7514 N   0  0  0  0  0  0  0  0  0  0  0  0
    5.3649    0.9057   18.0113 C   0  0  0  0  0  0  0  0  0  0  0  0
    5.0362    1.3798   19.3131 C   0  0  0  0  0  0  0  0  0  0  0  0
    3.9303    2.2446   19.5323 C   0  0  0  0  0  0  0  0  0  0  0  0
    3.6165    2.6534   20.7977 C   0  0  0  0  0  0  0  0  0  0  0  0
    4.3835    2.2175   21.9014 C   0  0  0  0  0  0  0  0  0  0  0  0
    5.4824    1.4155   21.7100 C   0  0  0  0  0  0  0  0  0  0  0  0
    5.8562    0.9922   20.4015 C   0  0  0  0  0  0  0  0  0  0  0  0
    7.6503   -1.5386   21.8054 C   0  0  0  0  0  0  0  0  0  0  0  0
    8.9790   -1.7625   22.5379 C   0  0  2  0  0  0  0  0  0  0  0  0
    8.8906   -2.7735   23.6964 C   0  0  0  0  0  0  0  0  0  0  0  0
   10.2598   -3.1644   24.2246 C   0  0  0  0  0  0  0  0  0  0  0  0
   11.1114   -3.9158   23.4140 C   0  0  0  0  0  0  0  0  0  0  0  0
   12.4270   -4.1594   23.7804 C   0  0  0  0  0  0  0  0  0  0  0  0
   12.8642   -3.8425   25.0602 C   0  0  0  0  0  0  0  0  0  0  0  0
   12.0105   -3.1547   25.9096 C   0  0  0  0  0  0  0  0  0  0  0  0
   10.7410   -2.7753   25.4770 C   0  0  0  0  0  0  0  0  0  0  0  0
   11.0002   -0.1561   22.9325 C   0  0  0  0  0  0  0  0  0  0  0  0
   11.9047   -1.0738   22.4051 C   0  0  0  0  0  0  0  0  0  0  0  0
   13.2526   -0.7780   22.3540 C   0  0  0  0  0  0  0  0  0  0  0  0
   14.3026   -1.9417   21.5877 Cl  0  0  0  0  0  0  0  0  0  0  0  0
   13.7740    0.4148   22.8508 C   0  0  0  0  0  0  0  0  0  0  0  0
   12.8932    1.3093   23.4190 C   0  0  0  0  0  0  0  0  0  0  0  0
   11.5325    1.0178   23.4806 C   0  0  0  0  0  0  0  0  0  0  0  0
   10.6370    2.0238   24.1248 C   0  0  0  0  0  0  0  0  0  0  0  0
   10.9965    3.1765   24.3344 O   0  0  0  0  0  0  0  0  0  0  0  0
    6.2400    4.5534   22.6595 H   0  0  0  0  0  0  0  0  0  0  0  0
    7.3999    4.3939   21.3138 H   0  0  0  0  0  0  0  0  0  0  0  0
    7.5750    5.6968   22.5243 H   0  0  0  0  0  0  0  0  0  0  0  0
    8.6405    3.0479   22.6350 H   0  0  0  0  0  0  0  0  0  0  0  0
    7.7723    1.8763   25.7165 H   0  0  0  0  0  0  0  0  0  0  0  0
    9.1448    2.9314   26.0187 H   0  0  0  0  0  0  0  0  0  0  0  0
    9.2866   -0.4376   25.0223 H   0  0  0  0  0  0  0  0  0  0  0  0
    7.8516    0.2010   24.1908 H   0  0  0  0  0  0  0  0  0  0  0  0
    8.0751   -0.8005   18.5348 H   0  0  0  0  0  0  0  0  0  0  0  0
    4.7307    1.2017   17.1743 H   0  0  0  0  0  0  0  0  0  0  0  0
    3.3472    2.5730   18.6748 H   0  0  0  0  0  0  0  0  0  0  0  0
    2.7748    3.3168   20.9668 H   0  0  0  0  0  0  0  0  0  0  0  0
    4.1247    2.5502   22.9045 H   0  0  0  0  0  0  0  0  0  0  0  0
    6.0763    1.1091   22.5668 H   0  0  0  0  0  0  0  0  0  0  0  0
    7.4248   -2.3287   21.0866 H   0  0  0  0  0  0  0  0  0  0  0  0
    6.8135   -1.4652   22.5240 H   0  0  0  0  0  0  0  0  0  0  0  0
    9.6634   -2.1692   21.7858 H   0  0  0  0  0  0  0  0  0  0  0  0
    8.2647   -2.3634   24.4995 H   0  0  0  0  0  0  0  0  0  0  0  0
    8.3872   -3.6823   23.3358 H   0  0  0  0  0  0  0  0  0  0  0  0
   10.7686   -4.2381   22.4340 H   0  0  0  0  0  0  0  0  0  0  0  0
   13.1067   -4.5740   23.0539 H   0  0  0  0  0  0  0  0  0  0  0  0
   13.8525   -4.1337   25.3994 H   0  0  0  0  0  0  0  0  0  0  0  0
   12.3378   -2.9017   26.9173 H   0  0  0  0  0  0  0  0  0  0  0  0
   10.1274   -2.1701   26.1419 H   0  0  0  0  0  0  0  0  0  0  0  0
   11.5862   -2.0127   21.9815 H   0  0  0  0  0  0  0  0  0  0  0  0
   14.8343    0.6300   22.7691 H   0  0  0  0  0  0  0  0  0  0  0  0
   13.2376    2.2582   23.8152 H   0  0  0  0  0  0  0  0  0  0  0  0
  1  2  1  0
  2  3  1  0
  3  4  2  0
  3  5  1  0
  5  6  1  0
  6  7  1  0
  8  7  1  1
  8  9  1  0
  9 10  2  0
  9 11  1  0
 11 12  1  0
 12 13  2  0
 13 14  1  0
 14 15  2  0
 15 16  1  0
 16 17  2  0
 17 18  1  0
 18 19  2  0
 19 20  1  0
 20 21  2  0
 11 22  1  0
 22 23  1  0
 23 24  1  0
 24 25  1  0
 25 26  2  0
 26 27  1  0
 27 28  2  0
 28 29  1  0
 29 30  2  0
  8 31  1  0
 31 32  2  0
 32 33  1  0
 33 34  1  0
 33 35  2  0
 35 36  1  0
 36 37  2  0
 37 38  1  0
 38 39  2  0
 38  6  1  0
 23  8  1  0
 30 25  1  0
 37 31  1  0
 21 12  1  0
 21 16  1  0
  1 40  1  0
  1 41  1  0
  1 42  1  0
  2 43  1  0
  5 44  1  0
  5 45  1  0
  7 46  1  0
  7 47  1  0
 13 48  1  0
 15 49  1  0
 17 50  1  0
 18 51  1  0
 19 52  1  0
 20 53  1  0
 22 54  1  0
 22 55  1  0
 23 56  1  6
 24 57  1  0
 24 58  1  0
 26 59  1  0
 27 60  1  0
 28 61  1  0
 29 62  1  0
 30 63  1  0
 32 64  1  0
 35 65  1  0
 36 66  1  0
M  END
$$$$
