LIG(A-306)
     RDKit          3D

 33 37  0  0  1  0  0  0  0  0999 V2000
   11.0496    3.1178   24.4199 O   0  0  0  0  0  0  0  0  0  0  0  0
   10.6613    2.0002   24.1459 C   0  0  0  0  0  0  0  0  0  0  0  0
    9.3944    1.5914   24.4116 N   0  0  0  0  0  0  0  0  0  0  0  0
    8.5128    2.4163   25.2182 C   0  0  0  0  0  0  0  0  0  0  0  0
    7.8496    3.5896   24.5105 C   0  0  0  0  0  0  0  0  0  0  0  0
    7.1606    4.3827   25.1465 O   0  0  0  0  0  0  0  0  0  0  0  0
    8.0202    3.7031   23.1985 N   0  0  0  0  0  0  0  0  0  0  0  0
    7.2335    4.6194   22.3923 C   0  0  0  0  0  0  0  0  0  0  0  0
   11.5337    1.0283   23.4692 C   0  0  0  0  0  0  0  0  0  0  0  0
   12.8946    1.3064   23.3733 C   0  0  0  0  0  0  0  0  0  0  0  0
   13.7375    0.4464   22.6966 C   0  0  0  0  0  0  0  0  0  0  0  0
   13.2187   -0.6993   22.1359 C   0  0  0  0  0  0  0  0  0  0  0  0
   14.2685   -1.7405   21.2214 Cl  0  0  0  0  0  0  0  0  0  0  0  0
   11.8776   -1.0235   22.2380 C   0  0  0  0  0  0  0  0  0  0  0  0
   11.0168   -0.1400   22.8851 C   0  0  0  0  0  0  0  0  0  0  0  0
    9.4981   -0.3216   22.8238 C   0  0  1  0  0  0  0  0  0  0  0  0
    8.9536    0.2144   24.1754 C   0  0  0  0  0  0  0  0  0  0  0  0
    8.8625    0.4856   21.6829 C   0  0  0  0  0  0  0  0  0  0  0  0
    9.1878    1.6025   21.3256 O   0  0  0  0  0  0  0  0  0  0  0  0
    7.8454   -0.2480   21.1538 N   0  0  0  0  0  0  0  0  0  0  0  0
    7.6804   -1.5533   21.8168 C   0  0  0  0  0  0  0  0  0  0  0  0
    9.0240   -1.7650   22.5164 C   0  0  0  0  0  0  0  0  0  0  0  0
    6.9918    0.1839   20.0874 C   0  0  0  0  0  0  0  0  0  0  0  0
    5.8646    1.0128   20.3741 C   0  0  0  0  0  0  0  0  0  0  0  0
    5.4990    1.4099   21.6869 C   0  0  0  0  0  0  0  0  0  0  0  0
    4.4146    2.2236   21.8671 C   0  0  0  0  0  0  0  0  0  0  0  0
    4.0609    2.8093   23.4709 Cl  0  0  0  0  0  0  0  0  0  0  0  0
    3.6329    2.6596   20.8078 C   0  0  0  0  0  0  0  0  0  0  0  0
    3.9619    2.2991   19.5330 C   0  0  0  0  0  0  0  0  0  0  0  0
    5.0819    1.4738   19.2772 C   0  0  0  0  0  0  0  0  0  0  0  0
    5.4746    1.0750   17.9715 C   0  0  0  0  0  0  0  0  0  0  0  0
    6.5260    0.3108   17.7089 N   0  0  0  0  0  0  0  0  0  0  0  0
    7.2514   -0.1170   18.7537 C   0  0  0  0  0  0  0  0  0  0  0  0
  1  2  2  0
  2  3  1  0
  2  9  1  0
  3  4  1  0
  3 17  1  0
  4  5  1  0
  5  6  2  0
  5  7  1  0
  7  8  1  0
  9 10  2  0
  9 15  1  0
 10 11  1  0
 11 12  2  0
 12 13  1  0
 12 14  1  0
 14 15  2  0
 15 16  1  0
 16 17  1  1
 16 18  1  0
 16 22  1  0
 18 19  2  0
 18 20  1  0
 20 21  1  0
 20 23  1  0
 21 22  1  0
 23 24  1  0
 23 33  2  0
 24 25  2  0
 24 30  1  0
 25 26  1  0
 26 27  1  0
 26 28  2  0
 28 29  1  0
 29 30  2  0
 30 31  1  0
 31 32  2  0
 32 33  1  0
M  END
$$$$
