
     RDKit          3D

 46 48  0  0  0  0  0  0  0  0999 V2000
   -8.7743    1.1620  -24.4931 C   0  0  0  0  0  0  0  0  0  0  0  0
   -8.8538   -0.1371  -25.3054 C   0  0  0  0  0  0  0  0  0  0  0  0
   -7.8458   -0.0862  -26.4457 C   0  0  0  0  0  0  0  0  0  0  0  0
   -8.7114   -1.3964  -24.4494 C   0  0  0  0  0  0  0  0  0  0  0  0
   -9.7743   -1.3646  -23.3327 C   0  0  0  0  0  0  0  0  0  0  0  0
   -9.7381   -2.6963  -22.5778 C   0  0  0  0  0  0  0  0  0  0  0  0
   -8.3897   -2.8334  -22.0163 N   0  0  0  0  0  0  0  0  0  0  0  0
   -7.9892   -1.9769  -20.9957 C   0  0  0  0  0  0  0  0  0  0  0  0
   -8.6596   -0.9836  -20.7381 O   0  0  0  0  0  0  0  0  0  0  0  0
   -6.6403   -2.2415  -20.3038 C   0  0  0  0  0  0  0  0  0  0  0  0
   -6.0685   -1.1797  -19.3625 C   0  0  0  0  0  0  0  0  0  0  0  0
   -6.3474   -1.2095  -17.9882 C   0  0  0  0  0  0  0  0  0  0  0  0
   -5.6825   -0.4785  -17.0750 N   0  0  0  0  0  0  0  0  0  0  0  0
   -4.6913    0.3200  -17.5079 C   0  0  0  0  0  0  0  0  0  0  0  0
   -4.3885    0.4797  -18.8652 C   0  0  0  0  0  0  0  0  0  0  0  0
   -3.3668    1.3426  -19.2920 C   0  0  0  0  0  0  0  0  0  0  0  0
   -3.1190    1.5177  -20.6566 C   0  0  0  0  0  0  0  0  0  0  0  0
   -3.8866    0.8339  -21.6008 C   0  0  0  0  0  0  0  0  0  0  0  0
   -4.8780   -0.0547  -21.1788 C   0  0  0  0  0  0  0  0  0  0  0  0
   -5.1237   -0.2496  -19.8148 C   0  0  0  0  0  0  0  0  0  0  0  0
   -7.3697   -2.9841  -23.0572 C   0  0  0  0  0  0  0  0  0  0  0  0
   -7.3366   -1.6252  -23.7939 C   0  0  0  0  0  0  0  0  0  0  0  0
   -7.7320    1.4415  -24.3179 H   0  0  0  0  0  0  0  0  0  0  0  0
   -9.2823    1.0655  -23.5274 H   0  0  0  0  0  0  0  0  0  0  0  0
   -9.2669    1.9579  -25.0560 H   0  0  0  0  0  0  0  0  0  0  0  0
   -9.8485   -0.2161  -25.7427 H   0  0  0  0  0  0  0  0  0  0  0  0
   -7.9610   -0.9560  -27.0984 H   0  0  0  0  0  0  0  0  0  0  0  0
   -6.8259   -0.0750  -26.0614 H   0  0  0  0  0  0  0  0  0  0  0  0
   -8.0074    0.8224  -27.0299 H   0  0  0  0  0  0  0  0  0  0  0  0
   -8.9051   -2.2600  -25.0958 H   0  0  0  0  0  0  0  0  0  0  0  0
  -10.7611   -1.1976  -23.7697 H   0  0  0  0  0  0  0  0  0  0  0  0
   -9.5677   -0.5453  -22.6330 H   0  0  0  0  0  0  0  0  0  0  0  0
  -10.5060   -2.7231  -21.7932 H   0  0  0  0  0  0  0  0  0  0  0  0
   -9.9534   -3.5204  -23.2678 H   0  0  0  0  0  0  0  0  0  0  0  0
   -6.7364   -3.1869  -19.7594 H   0  0  0  0  0  0  0  0  0  0  0  0
   -5.8938   -2.4080  -21.0865 H   0  0  0  0  0  0  0  0  0  0  0  0
   -7.1229   -1.8883  -17.6565 H   0  0  0  0  0  0  0  0  0  0  0  0
   -4.1102    0.8676  -16.7699 H   0  0  0  0  0  0  0  0  0  0  0  0
   -2.7702    1.8853  -18.5685 H   0  0  0  0  0  0  0  0  0  0  0  0
   -2.3345    2.1921  -20.9799 H   0  0  0  0  0  0  0  0  0  0  0  0
   -3.7138    0.9915  -22.6623 H   0  0  0  0  0  0  0  0  0  0  0  0
   -5.4778   -0.5868  -21.9067 H   0  0  0  0  0  0  0  0  0  0  0  0
   -7.6466   -3.7900  -23.7518 H   0  0  0  0  0  0  0  0  0  0  0  0
   -6.3931   -3.2348  -22.6213 H   0  0  0  0  0  0  0  0  0  0  0  0
   -7.1262   -0.8232  -23.0796 H   0  0  0  0  0  0  0  0  0  0  0  0
   -6.5393   -1.6166  -24.5378 H   0  0  0  0  0  0  0  0  0  0  0  0
  1  2  1  0
  2  3  1  0
  2  4  1  0
  4  5  1  0
  5  6  1  0
  6  7  1  0
  7  8  1  0
  8  9  2  0
  8 10  1  0
 10 11  1  0
 11 12  2  0
 12 13  1  0
 13 14  2  0
 14 15  1  0
 15 16  2  0
 16 17  1  0
 17 18  2  0
 18 19  1  0
 19 20  2  0
  7 21  1  0
 21 22  1  0
 22  4  1  0
 20 11  1  0
 20 15  1  0
  1 23  1  0
  1 24  1  0
  1 25  1  0
  2 26  1  0
  3 27  1  0
  3 28  1  0
  3 29  1  0
  4 30  1  0
  5 31  1  0
  5 32  1  0
  6 33  1  0
  6 34  1  0
 10 35  1  0
 10 36  1  0
 12 37  1  0
 14 38  1  0
 16 39  1  0
 17 40  1  0
 18 41  1  0
 19 42  1  0
 21 43  1  0
 21 44  1  0
 22 45  1  0
 22 46  1  0
M  END
