
     RDKit          3D

 46 48  0  0  0  0  0  0  0  0999 V2000
    9.2240    2.2725   24.4190 C   0  0  0  0  0  0  0  0  0  0  0  0
    9.3575    0.9894   25.2493 C   0  0  0  0  0  0  0  0  0  0  0  0
    8.3728    1.0302   26.4101 C   0  0  0  0  0  0  0  0  0  0  0  0
    9.2330   -0.2870   24.4162 C   0  0  0  0  0  0  0  0  0  0  0  0
   10.2708   -0.2432   23.2765 C   0  0  0  0  0  0  0  0  0  0  0  0
   10.2566   -1.5874   22.5432 C   0  0  0  0  0  0  0  0  0  0  0  0
    8.9011   -1.7714   22.0131 N   0  0  0  0  0  0  0  0  0  0  0  0
    8.4550   -0.9430   20.9882 C   0  0  0  0  0  0  0  0  0  0  0  0
    9.0913    0.0645   20.7009 O   0  0  0  0  0  0  0  0  0  0  0  0
    7.0999   -1.2565   20.3297 C   0  0  0  0  0  0  0  0  0  0  0  0
    6.4784   -0.2264   19.3846 C   0  0  0  0  0  0  0  0  0  0  0  0
    6.7290   -0.2704   18.0052 C   0  0  0  0  0  0  0  0  0  0  0  0
    6.0245    0.4268   17.0954 N   0  0  0  0  0  0  0  0  0  0  0  0
    5.0203    1.2040   17.5371 C   0  0  0  0  0  0  0  0  0  0  0  0
    4.7417    1.3769   18.8980 C   0  0  0  0  0  0  0  0  0  0  0  0
    3.7051    2.2174   19.3333 C   0  0  0  0  0  0  0  0  0  0  0  0
    3.4813    2.4074   20.7000 C   0  0  0  0  0  0  0  0  0  0  0  0
    4.2877    1.7607   21.6379 C   0  0  0  0  0  0  0  0  0  0  0  0
    5.2949    0.8937   21.2085 C   0  0  0  0  0  0  0  0  0  0  0  0
    5.5173    0.6839   19.8427 C   0  0  0  0  0  0  0  0  0  0  0  0
    7.9080   -1.9339   23.0779 C   0  0  0  0  0  0  0  0  0  0  0  0
    7.8518   -0.5649   23.7940 C   0  0  0  0  0  0  0  0  0  0  0  0
    8.1707    2.5198   24.2619 H   0  0  0  0  0  0  0  0  0  0  0  0
    9.7141    2.1749   23.4441 H   0  0  0  0  0  0  0  0  0  0  0  0
    9.7055    3.0909   24.9587 H   0  0  0  0  0  0  0  0  0  0  0  0
   10.3631    0.9455   25.6663 H   0  0  0  0  0  0  0  0  0  0  0  0
    8.5264    0.1746   27.0736 H   0  0  0  0  0  0  0  0  0  0  0  0
    7.3451    1.0066   26.0478 H   0  0  0  0  0  0  0  0  0  0  0  0
    8.5207    1.9523   26.9766 H   0  0  0  0  0  0  0  0  0  0  0  0
    9.4648   -1.1343   25.0715 H   0  0  0  0  0  0  0  0  0  0  0  0
   11.2615   -0.0416   23.6895 H   0  0  0  0  0  0  0  0  0  0  0  0
   10.0263    0.5586   22.5688 H   0  0  0  0  0  0  0  0  0  0  0  0
   11.0083   -1.6052   21.7428 H   0  0  0  0  0  0  0  0  0  0  0  0
   10.5098   -2.3939   23.2411 H   0  0  0  0  0  0  0  0  0  0  0  0
    7.2114   -2.2074   19.7980 H   0  0  0  0  0  0  0  0  0  0  0  0
    6.3751   -1.4313   21.1307 H   0  0  0  0  0  0  0  0  0  0  0  0
    7.5163   -0.9324   17.6674 H   0  0  0  0  0  0  0  0  0  0  0  0
    4.4084    1.7231   16.8034 H   0  0  0  0  0  0  0  0  0  0  0  0
    3.0782    2.7314   18.6145 H   0  0  0  0  0  0  0  0  0  0  0  0
    2.6849    3.0646   21.0297 H   0  0  0  0  0  0  0  0  0  0  0  0
    4.1329    1.9304   22.7003 H   0  0  0  0  0  0  0  0  0  0  0  0
    5.9248    0.3904   21.9314 H   0  0  0  0  0  0  0  0  0  0  0  0
    8.2223   -2.7205   23.7787 H   0  0  0  0  0  0  0  0  0  0  0  0
    6.9300   -2.2190   22.6670 H   0  0  0  0  0  0  0  0  0  0  0  0
    7.6036    0.2193   23.0721 H   0  0  0  0  0  0  0  0  0  0  0  0
    7.0704   -0.5667   24.5547 H   0  0  0  0  0  0  0  0  0  0  0  0
  1  2  1  0
  2  3  1  0
  2  4  1  0
  4  5  1  0
  5  6  1  0
  6  7  1  0
  7  8  1  0
  8  9  2  0
  8 10  1  0
 10 11  1  0
 11 12  2  0
 12 13  1  0
 13 14  2  0
 14 15  1  0
 15 16  2  0
 16 17  1  0
 17 18  2  0
 18 19  1  0
 19 20  2  0
  7 21  1  0
 21 22  1  0
 22  4  1  0
 20 11  1  0
 20 15  1  0
  1 23  1  0
  1 24  1  0
  1 25  1  0
  2 26  1  0
  3 27  1  0
  3 28  1  0
  3 29  1  0
  4 30  1  0
  5 31  1  0
  5 32  1  0
  6 33  1  0
  6 34  1  0
 10 35  1  0
 10 36  1  0
 12 37  1  0
 14 38  1  0
 16 39  1  0
 17 40  1  0
 18 41  1  0
 19 42  1  0
 21 43  1  0
 21 44  1  0
 22 45  1  0
 22 46  1  0
M  END
$$$$
