
     RDKit          3D

 72 77  0  0  0  0  0  0  0  0999 V2000
    6.0444    8.9361   23.3626 C   0  0  0  0  0  0  0  0  0  0  0  0
    5.9229    7.6191   22.6214 C   0  0  1  0  0  0  0  0  0  0  0  0
    5.3387    6.4947   23.4815 C   0  0  0  0  0  0  0  0  0  0  0  0
    5.0787    5.2291   22.6822 N   0  0  2  0  0  0  0  0  0  0  0  0
    6.3130    4.4235   22.4369 C   0  0  0  0  0  0  0  0  0  0  0  0
    6.8208    3.7404   23.7087 C   0  0  0  0  0  0  0  0  0  0  0  0
    7.9455    2.8769   23.3951 N   0  0  0  0  0  0  0  0  0  0  0  0
    7.8869    1.4368   23.5494 C   0  0  0  0  0  0  0  0  0  0  0  0
    8.5777    0.7126   22.3636 C   0  0  2  0  0  0  0  0  0  0  0  0
    7.7343    0.9697   21.0898 C   0  0  0  0  0  0  0  0  0  0  0  0
    7.6778    1.9786   20.4165 O   0  0  0  0  0  0  0  0  0  0  0  0
    6.9619   -0.1426   20.8418 N   0  0  0  0  0  0  0  0  0  0  0  0
    5.9277   -0.0985   19.8768 C   0  0  0  0  0  0  0  0  0  0  0  0
    6.0687   -0.7805   18.6960 C   0  0  0  0  0  0  0  0  0  0  0  0
    5.2262   -0.6708   17.6420 N   0  0  0  0  0  0  0  0  0  0  0  0
    4.1780    0.1063   17.7919 C   0  0  0  0  0  0  0  0  0  0  0  0
    3.8584    0.7948   18.9975 C   0  0  0  0  0  0  0  0  0  0  0  0
    2.6784    1.5747   19.1283 C   0  0  0  0  0  0  0  0  0  0  0  0
    2.3581    2.1649   20.3202 C   0  0  0  0  0  0  0  0  0  0  0  0
    3.2175    2.0264   21.4313 C   0  0  0  0  0  0  0  0  0  0  0  0
    4.3870    1.3125   21.3195 C   0  0  0  0  0  0  0  0  0  0  0  0
    4.7446    0.6790   20.0925 C   0  0  0  0  0  0  0  0  0  0  0  0
    7.2111   -1.2584   21.7253 C   0  0  0  0  0  0  0  0  0  0  0  0
    8.4886   -0.8410   22.4826 C   0  0  2  0  0  0  0  0  0  0  0  0
    8.5254   -1.4043   23.9013 C   0  0  0  0  0  0  0  0  0  0  0  0
    9.9834    1.2938   22.2744 C   0  0  0  0  0  0  0  0  0  0  0  0
   11.1164    0.5237   21.9789 C   0  0  0  0  0  0  0  0  0  0  0  0
   12.3481    1.1376   21.8324 C   0  0  0  0  0  0  0  0  0  0  0  0
   13.7276    0.1302   21.5081 Cl  0  0  0  0  0  0  0  0  0  0  0  0
   12.5090    2.5259   21.8823 C   0  0  0  0  0  0  0  0  0  0  0  0
   11.3990    3.2933   22.1759 C   0  0  0  0  0  0  0  0  0  0  0  0
   10.1834    2.6710   22.4661 C   0  0  0  0  0  0  0  0  0  0  0  0
    9.1027    3.5160   23.0502 C   0  0  0  0  0  0  0  0  0  0  0  0
    9.2467    4.7267   23.1940 O   0  0  0  0  0  0  0  0  0  0  0  0
    4.3004    5.5507   21.4157 C   0  0  1  0  0  0  0  0  0  0  0  0
    2.8389    5.8093   21.7502 C   0  0  0  0  0  0  0  0  0  0  0  0
    4.9338    6.7378   20.6904 C   0  0  0  0  0  0  0  0  0  0  0  0
    5.0706    7.8662   21.5206 O   0  0  0  0  0  0  0  0  0  0  0  0
    6.7024    8.8583   24.2335 H   0  0  0  0  0  0  0  0  0  0  0  0
    6.4472    9.6963   22.6874 H   0  0  0  0  0  0  0  0  0  0  0  0
    5.0547    9.2688   23.6915 H   0  0  0  0  0  0  0  0  0  0  0  0
    6.9144    7.3086   22.2468 H   0  0  0  0  0  0  0  0  0  0  0  0
    6.0168    6.2705   24.3084 H   0  0  0  0  0  0  0  0  0  0  0  0
    4.3918    6.8283   23.9116 H   0  0  0  0  0  0  0  0  0  0  0  0
    4.4567    4.6229   23.2471 H   0  0  0  0  0  0  0  0  0  0  0  0
    6.0981    3.6608   21.6800 H   0  0  0  0  0  0  0  0  0  0  0  0
    7.0974    5.0669   22.0344 H   0  0  0  0  0  0  0  0  0  0  0  0
    6.0086    3.1713   24.1787 H   0  0  0  0  0  0  0  0  0  0  0  0
    7.1532    4.4939   24.4286 H   0  0  0  0  0  0  0  0  0  0  0  0
    6.8383    1.1300   23.6164 H   0  0  0  0  0  0  0  0  0  0  0  0
    8.3913    1.1368   24.4769 H   0  0  0  0  0  0  0  0  0  0  0  0
    6.9289   -1.4335   18.5527 H   0  0  0  0  0  0  0  0  0  0  0  0
    3.5022    0.1973   16.9410 H   0  0  0  0  0  0  0  0  0  0  0  0
    2.0430    1.6957   18.2587 H   0  0  0  0  0  0  0  0  0  0  0  0
    1.4371    2.7367   20.4132 H   0  0  0  0  0  0  0  0  0  0  0  0
    2.9563    2.4952   22.3767 H   0  0  0  0  0  0  0  0  0  0  0  0
    5.0409    1.2250   22.1805 H   0  0  0  0  0  0  0  0  0  0  0  0
    7.3478   -2.1830   21.1511 H   0  0  0  0  0  0  0  0  0  0  0  0
    6.3685   -1.4276   22.4137 H   0  0  0  0  0  0  0  0  0  0  0  0
    9.3257   -1.2598   21.9137 H   0  0  0  0  0  0  0  0  0  0  0  0
    9.4225   -1.0842   24.4412 H   0  0  0  0  0  0  0  0  0  0  0  0
    8.5105   -2.4995   23.8879 H   0  0  0  0  0  0  0  0  0  0  0  0
    7.6512   -1.0736   24.4771 H   0  0  0  0  0  0  0  0  0  0  0  0
   11.0701   -0.5538   21.8504 H   0  0  0  0  0  0  0  0  0  0  0  0
   13.4807    2.9785   21.7131 H   0  0  0  0  0  0  0  0  0  0  0  0
   11.4691    4.3751   22.2439 H   0  0  0  0  0  0  0  0  0  0  0  0
    4.3795    4.6620   20.7779 H   0  0  0  0  0  0  0  0  0  0  0  0
    2.2539    5.8650   20.8274 H   0  0  0  0  0  0  0  0  0  0  0  0
    2.7139    6.7486   22.2950 H   0  0  0  0  0  0  0  0  0  0  0  0
    2.4467    4.9878   22.3611 H   0  0  0  0  0  0  0  0  0  0  0  0
    5.9061    6.4468   20.2592 H   0  0  0  0  0  0  0  0  0  0  0  0
    4.2729    7.0682   19.8897 H   0  0  0  0  0  0  0  0  0  0  0  0
  1  2  1  0
  2  3  1  0
  3  4  1  0
  4  5  1  0
  5  6  1  0
  6  7  1  0
  7  8  1  0
  9  8  1  1
  9 10  1  0
 10 11  2  0
 10 12  1  0
 12 13  1  0
 13 14  2  0
 14 15  1  0
 15 16  2  0
 16 17  1  0
 17 18  2  0
 18 19  1  0
 19 20  2  0
 20 21  1  0
 21 22  2  0
 12 23  1  0
 23 24  1  0
 24 25  1  0
  9 26  1  0
 26 27  2  0
 27 28  1  0
 28 29  1  0
 28 30  2  0
 30 31  1  0
 31 32  2  0
 32 33  1  0
 33 34  2  0
  4 35  1  0
 35 36  1  0
 35 37  1  0
 37 38  1  0
 38  2  1  0
 33  7  1  0
 24  9  1  0
 32 26  1  0
 22 13  1  0
 22 17  1  0
  1 39  1  0
  1 40  1  0
  1 41  1  0
  2 42  1  6
  3 43  1  0
  3 44  1  0
  4 45  1  1
  5 46  1  0
  5 47  1  0
  6 48  1  0
  6 49  1  0
  8 50  1  0
  8 51  1  0
 14 52  1  0
 16 53  1  0
 18 54  1  0
 19 55  1  0
 20 56  1  0
 21 57  1  0
 23 58  1  0
 23 59  1  0
 24 60  1  6
 25 61  1  0
 25 62  1  0
 25 63  1  0
 27 64  1  0
 30 65  1  0
 31 66  1  0
 35 67  1  6
 36 68  1  0
 36 69  1  0
 36 70  1  0
 37 71  1  0
 37 72  1  0
M  CHG  1   4   1
M  END
$$$$
