
     RDKit          3D

 41 44  0  0  0  0  0  0  0  0999 V2000
    9.0369    3.1717   23.0292 C   0  0  0  0  0  0  0  0  0  0  0  0
    9.6566    2.0326   22.2205 C   0  0  1  0  0  0  0  0  0  0  0  0
   11.0186    1.6932   22.7308 C   0  0  0  0  0  0  0  0  0  0  0  0
   12.2512    2.3357   22.3900 C   0  0  0  0  0  0  0  0  0  0  0  0
   13.3201    1.7732   23.0192 C   0  0  0  0  0  0  0  0  0  0  0  0
   12.8165    0.5469   24.1266 S   0  0  0  0  0  0  0  0  0  0  0  0
   11.1632    0.7063   23.6509 C   0  0  0  0  0  0  0  0  0  0  0  0
    9.9970   -0.1009   24.1550 C   0  0  0  0  0  0  0  0  0  0  0  0
    9.0095   -0.3481   23.0083 C   0  0  0  0  0  0  0  0  0  0  0  0
    8.7947    0.8377   22.1700 N   0  0  0  0  0  0  0  0  0  0  0  0
    7.8132    0.8732   21.2107 C   0  0  0  0  0  0  0  0  0  0  0  0
    7.6897    1.8391   20.4680 O   0  0  0  0  0  0  0  0  0  0  0  0
    6.8881   -0.3431   21.0744 C   0  0  0  0  0  0  0  0  0  0  0  0
    5.8735   -0.1907   19.9694 C   0  0  0  0  0  0  0  0  0  0  0  0
    6.0683   -0.7900   18.7521 C   0  0  0  0  0  0  0  0  0  0  0  0
    5.2687   -0.6460   17.6635 N   0  0  0  0  0  0  0  0  0  0  0  0
    4.1972    0.0948   17.8108 C   0  0  0  0  0  0  0  0  0  0  0  0
    3.8336    0.7393   19.0237 C   0  0  0  0  0  0  0  0  0  0  0  0
    2.6485    1.5072   19.1412 C   0  0  0  0  0  0  0  0  0  0  0  0
    2.3170    2.0975   20.3306 C   0  0  0  0  0  0  0  0  0  0  0  0
    3.1943    1.9977   21.4333 C   0  0  0  0  0  0  0  0  0  0  0  0
    4.3673    1.2883   21.3328 C   0  0  0  0  0  0  0  0  0  0  0  0
    4.7029    0.6127   20.1302 C   0  0  0  0  0  0  0  0  0  0  0  0
    8.8855    2.8641   24.0714 H   0  0  0  0  0  0  0  0  0  0  0  0
    8.0909    3.4870   22.5837 H   0  0  0  0  0  0  0  0  0  0  0  0
    9.7416    4.0094   23.0068 H   0  0  0  0  0  0  0  0  0  0  0  0
    9.7368    2.3670   21.1790 H   0  0  0  0  0  0  0  0  0  0  0  0
   12.3376    3.1941   21.7358 H   0  0  0  0  0  0  0  0  0  0  0  0
   14.3691    2.0026   22.8692 H   0  0  0  0  0  0  0  0  0  0  0  0
   10.3082   -1.0694   24.5672 H   0  0  0  0  0  0  0  0  0  0  0  0
    9.4896    0.4619   24.9574 H   0  0  0  0  0  0  0  0  0  0  0  0
    8.0425   -0.6419   23.4356 H   0  0  0  0  0  0  0  0  0  0  0  0
    9.3712   -1.1886   22.3918 H   0  0  0  0  0  0  0  0  0  0  0  0
    7.5161   -1.2197   20.8686 H   0  0  0  0  0  0  0  0  0  0  0  0
    6.4004   -0.5430   22.0380 H   0  0  0  0  0  0  0  0  0  0  0  0
    6.9201   -1.4516   18.5894 H   0  0  0  0  0  0  0  0  0  0  0  0
    3.5371    0.1850   16.9491 H   0  0  0  0  0  0  0  0  0  0  0  0
    2.0274    1.6285   18.2610 H   0  0  0  0  0  0  0  0  0  0  0  0
    1.3941    2.6637   20.4225 H   0  0  0  0  0  0  0  0  0  0  0  0
    2.9424    2.5018   22.3624 H   0  0  0  0  0  0  0  0  0  0  0  0
    5.0576    1.2377   22.1688 H   0  0  0  0  0  0  0  0  0  0  0  0
  1  2  1  0
  2  3  1  0
  3  4  1  0
  4  5  2  0
  5  6  1  0
  6  7  1  0
  7  8  1  0
  8  9  1  0
  9 10  1  0
 10 11  1  0
 11 12  2  0
 11 13  1  0
 13 14  1  0
 14 15  2  0
 15 16  1  0
 16 17  2  0
 17 18  1  0
 18 19  2  0
 19 20  1  0
 20 21  2  0
 21 22  1  0
 22 23  2  0
 10  2  1  0
 23 14  1  0
  7  3  2  0
 23 18  1  0
  1 24  1  0
  1 25  1  0
  1 26  1  0
  2 27  1  6
  4 28  1  0
  5 29  1  0
  8 30  1  0
  8 31  1  0
  9 32  1  0
  9 33  1  0
 13 34  1  0
 13 35  1  0
 15 36  1  0
 17 37  1  0
 19 38  1  0
 20 39  1  0
 21 40  1  0
 22 41  1  0
M  END
$$$$
