
     RDKit          3D

 69 74  0  0  0  0  0  0  0  0999 V2000
    7.2899    4.6359   22.3508 C   0  0  0  0  0  0  0  0  0  0  0  0
    8.0286    3.6641   23.1264 N   0  0  0  0  0  0  0  0  0  0  0  0
    7.8083    3.5743   24.4520 C   0  0  0  0  0  0  0  0  0  0  0  0
    7.0481    4.3155   25.0670 O   0  0  0  0  0  0  0  0  0  0  0  0
    8.5508    2.4755   25.2260 C   0  0  0  0  0  0  0  0  0  0  0  0
    9.3825    1.5739   24.4654 N   0  0  0  0  0  0  0  0  0  0  0  0
    8.9345    0.2136   24.2083 C   0  0  0  0  0  0  0  0  0  0  0  0
    9.4985   -0.3099   22.8585 C   0  0  2  0  0  0  0  0  0  0  0  0
    8.8367    0.5053   21.7179 C   0  0  0  0  0  0  0  0  0  0  0  0
    9.0849    1.6529   21.4011 O   0  0  0  0  0  0  0  0  0  0  0  0
    7.8687   -0.2682   21.1283 N   0  0  0  0  0  0  0  0  0  0  0  0
    6.9967    0.1897   20.1075 C   0  0  0  0  0  0  0  0  0  0  0  0
    7.1887   -0.2210   18.8112 C   0  0  0  0  0  0  0  0  0  0  0  0
    6.3725    0.0956   17.7775 N   0  0  0  0  0  0  0  0  0  0  0  0
    5.3307    0.8489   18.0284 C   0  0  0  0  0  0  0  0  0  0  0  0
    5.0229    1.3573   19.3231 C   0  0  0  0  0  0  0  0  0  0  0  0
    3.9109    2.2097   19.5433 C   0  0  0  0  0  0  0  0  0  0  0  0
    3.5999    2.6434   20.8011 C   0  0  0  0  0  0  0  0  0  0  0  0
    4.3809    2.2271   21.9010 C   0  0  0  0  0  0  0  0  0  0  0  0
    5.4811    1.4250   21.7150 C   0  0  0  0  0  0  0  0  0  0  0  0
    5.8519    0.9936   20.4099 C   0  0  0  0  0  0  0  0  0  0  0  0
    7.6690   -1.5350   21.7985 C   0  0  0  0  0  0  0  0  0  0  0  0
    9.0247   -1.7233   22.4756 C   0  0  2  0  0  0  0  0  0  0  0  0
    9.0837   -2.7532   23.6035 C   0  0  0  0  0  0  0  0  0  0  0  0
    8.8706   -4.1142   23.1632 N   0  0  0  0  0  0  0  0  0  0  0  0
    7.6437   -4.6697   22.9849 C   0  0  0  0  0  0  0  0  0  0  0  0
    6.4842   -4.1736   23.5991 C   0  0  0  0  0  0  0  0  0  0  0  0
    5.3579   -4.9443   23.4747 C   0  0  0  0  0  0  0  0  0  0  0  0
    5.2877   -6.0574   22.7398 N   0  0  0  0  0  0  0  0  0  0  0  0
    6.4245   -6.3857   22.1182 C   0  0  0  0  0  0  0  0  0  0  0  0
    6.4360   -7.5936   21.2413 C   0  0  0  0  0  0  0  0  0  0  0  0
    7.5968   -5.7701   22.2255 N   0  0  0  0  0  0  0  0  0  0  0  0
   11.0050   -0.1712   22.9345 C   0  0  0  0  0  0  0  0  0  0  0  0
   11.9214   -1.1483   22.5088 C   0  0  0  0  0  0  0  0  0  0  0  0
   13.2729   -0.8518   22.4479 C   0  0  0  0  0  0  0  0  0  0  0  0
   14.3701   -2.0128   21.7454 Cl  0  0  0  0  0  0  0  0  0  0  0  0
   13.7737    0.3701   22.8980 C   0  0  0  0  0  0  0  0  0  0  0  0
   12.8841    1.2971   23.4054 C   0  0  0  0  0  0  0  0  0  0  0  0
   11.5201    1.0205   23.4533 C   0  0  0  0  0  0  0  0  0  0  0  0
   10.6250    2.0230   24.1122 C   0  0  0  0  0  0  0  0  0  0  0  0
   10.9838    3.1782   24.3180 O   0  0  0  0  0  0  0  0  0  0  0  0
    6.2288    4.5964   22.6250 H   0  0  0  0  0  0  0  0  0  0  0  0
    7.6520    5.6552   22.5274 H   0  0  0  0  0  0  0  0  0  0  0  0
    7.4144    4.3930   21.2909 H   0  0  0  0  0  0  0  0  0  0  0  0
    8.5865    2.9768   22.6235 H   0  0  0  0  0  0  0  0  0  0  0  0
    7.7942    1.9045   25.7732 H   0  0  0  0  0  0  0  0  0  0  0  0
    9.1694    2.9841   25.9708 H   0  0  0  0  0  0  0  0  0  0  0  0
    7.8385    0.2131   24.1817 H   0  0  0  0  0  0  0  0  0  0  0  0
    9.2581   -0.4439   25.0272 H   0  0  0  0  0  0  0  0  0  0  0  0
    8.0465   -0.8422   18.5561 H   0  0  0  0  0  0  0  0  0  0  0  0
    4.6765    1.1010   17.1910 H   0  0  0  0  0  0  0  0  0  0  0  0
    3.3328    2.5220   18.6809 H   0  0  0  0  0  0  0  0  0  0  0  0
    2.7631    3.3186   20.9598 H   0  0  0  0  0  0  0  0  0  0  0  0
    4.1244    2.5674   22.9000 H   0  0  0  0  0  0  0  0  0  0  0  0
    6.0713    1.1126   22.5726 H   0  0  0  0  0  0  0  0  0  0  0  0
    6.8512   -1.4843   22.5347 H   0  0  0  0  0  0  0  0  0  0  0  0
    7.4217   -2.3152   21.0759 H   0  0  0  0  0  0  0  0  0  0  0  0
    9.6899   -2.0461   21.6671 H   0  0  0  0  0  0  0  0  0  0  0  0
   10.0646   -2.6947   24.0976 H   0  0  0  0  0  0  0  0  0  0  0  0
    8.3337   -2.5093   24.3634 H   0  0  0  0  0  0  0  0  0  0  0  0
    9.5675   -4.5312   22.5582 H   0  0  0  0  0  0  0  0  0  0  0  0
    6.4441   -3.2693   24.1872 H   0  0  0  0  0  0  0  0  0  0  0  0
    4.4670   -4.6444   24.0164 H   0  0  0  0  0  0  0  0  0  0  0  0
    5.8057   -7.4672   20.3533 H   0  0  0  0  0  0  0  0  0  0  0  0
    7.4743   -7.7789   20.9350 H   0  0  0  0  0  0  0  0  0  0  0  0
    6.0488   -8.4365   21.8218 H   0  0  0  0  0  0  0  0  0  0  0  0
   11.5984   -2.1319   22.1863 H   0  0  0  0  0  0  0  0  0  0  0  0
   14.8369    0.5795   22.8302 H   0  0  0  0  0  0  0  0  0  0  0  0
   13.2233    2.2526   23.7880 H   0  0  0  0  0  0  0  0  0  0  0  0
  1  2  1  0
  2  3  1  0
  3  4  2  0
  3  5  1  0
  5  6  1  0
  6  7  1  0
  8  7  1  1
  8  9  1  0
  9 10  2  0
  9 11  1  0
 11 12  1  0
 12 13  2  0
 13 14  1  0
 14 15  2  0
 15 16  1  0
 16 17  2  0
 17 18  1  0
 18 19  2  0
 19 20  1  0
 20 21  2  0
 11 22  1  0
 22 23  1  0
 23 24  1  0
 24 25  1  0
 25 26  1  0
 26 27  2  0
 27 28  1  0
 28 29  2  0
 29 30  1  0
 30 31  1  0
 30 32  2  0
  8 33  1  0
 33 34  2  0
 34 35  1  0
 35 36  1  0
 35 37  2  0
 37 38  1  0
 38 39  2  0
 39 40  1  0
 40 41  2  0
 40  6  1  0
 23  8  1  0
 32 26  1  0
 39 33  1  0
 21 12  1  0
 21 16  1  0
  1 42  1  0
  1 43  1  0
  1 44  1  0
  2 45  1  0
  5 46  1  0
  5 47  1  0
  7 48  1  0
  7 49  1  0
 13 50  1  0
 15 51  1  0
 17 52  1  0
 18 53  1  0
 19 54  1  0
 20 55  1  0
 22 56  1  0
 22 57  1  0
 23 58  1  6
 24 59  1  0
 24 60  1  0
 25 61  1  0
 27 62  1  0
 28 63  1  0
 31 64  1  0
 31 65  1  0
 31 66  1  0
 34 67  1  0
 37 68  1  0
 38 69  1  0
M  END
$$$$
