
     RDKit          3D

 42 45  0  0  0  0  0  0  0  0999 V2000
   -8.3021   -0.2260  -21.1958 O   0  0  0  0  0  0  0  0  0  0  0  0
   -7.8384   -1.3073  -21.4873 C   0  0  0  0  0  0  0  0  0  0  0  0
   -8.5975   -2.4281  -22.2026 C   0  0  1  0  0  0  0  0  0  0  0  0
   -9.9423   -1.9716  -22.7130 C   0  0  0  0  0  0  0  0  0  0  0  0
  -10.0684   -0.9677  -23.6695 C   0  0  0  0  0  0  0  0  0  0  0  0
  -11.3296   -0.5300  -24.0424 C   0  0  0  0  0  0  0  0  0  0  0  0
  -12.4777   -1.1082  -23.5108 C   0  0  0  0  0  0  0  0  0  0  0  0
  -14.0232   -0.4979  -23.9553 Cl  0  0  0  0  0  0  0  0  0  0  0  0
  -12.3660   -2.1620  -22.6099 C   0  0  0  0  0  0  0  0  0  0  0  0
  -13.7652   -2.9445  -21.9539 Cl  0  0  0  0  0  0  0  0  0  0  0  0
  -11.0990   -2.5743  -22.2160 C   0  0  0  0  0  0  0  0  0  0  0  0
   -7.6969   -3.0831  -23.2517 C   0  0  0  0  0  0  0  0  0  0  0  0
   -6.4837   -3.6978  -22.5674 C   0  0  2  0  0  0  0  0  0  0  0  0
   -6.8587   -4.7606  -21.7023 O   0  0  0  0  0  0  0  0  0  0  0  0
   -5.7272   -2.6540  -21.7546 C   0  0  0  0  0  0  0  0  0  0  0  0
   -6.5583   -1.6559  -21.0920 N   0  0  0  0  0  0  0  0  0  0  0  0
   -5.9756   -0.8896  -20.0380 C   0  0  0  0  0  0  0  0  0  0  0  0
   -6.3915   -1.0839  -18.7448 C   0  0  0  0  0  0  0  0  0  0  0  0
   -5.8385   -0.4954  -17.6513 N   0  0  0  0  0  0  0  0  0  0  0  0
   -4.8573    0.3555  -17.8542 C   0  0  0  0  0  0  0  0  0  0  0  0
   -4.3489    0.6875  -19.1468 C   0  0  0  0  0  0  0  0  0  0  0  0
   -3.3147    1.6488  -19.3263 C   0  0  0  0  0  0  0  0  0  0  0  0
   -2.8447    1.9469  -20.5763 C   0  0  0  0  0  0  0  0  0  0  0  0
   -3.4113    1.3108  -21.7117 C   0  0  0  0  0  0  0  0  0  0  0  0
   -4.4375    0.4053  -21.5713 C   0  0  0  0  0  0  0  0  0  0  0  0
   -4.9239    0.0578  -20.2798 C   0  0  0  0  0  0  0  0  0  0  0  0
   -8.7828   -3.1994  -21.4478 H   0  0  0  0  0  0  0  0  0  0  0  0
   -9.1934   -0.4798  -24.0985 H   0  0  0  0  0  0  0  0  0  0  0  0
  -11.4397    0.3124  -24.7070 H   0  0  0  0  0  0  0  0  0  0  0  0
  -11.0408   -3.3766  -21.4878 H   0  0  0  0  0  0  0  0  0  0  0  0
   -8.2430   -3.8688  -23.7849 H   0  0  0  0  0  0  0  0  0  0  0  0
   -7.3771   -2.3548  -24.0058 H   0  0  0  0  0  0  0  0  0  0  0  0
   -5.7813   -4.0752  -23.3276 H   0  0  0  0  0  0  0  0  0  0  0  0
   -7.1179   -5.5066  -22.2590 H   0  0  0  0  0  0  0  0  0  0  0  0
   -5.1605   -3.1713  -20.9823 H   0  0  0  0  0  0  0  0  0  0  0  0
   -4.9953   -2.1727  -22.4134 H   0  0  0  0  0  0  0  0  0  0  0  0
   -7.1963   -1.7860  -18.5324 H   0  0  0  0  0  0  0  0  0  0  0  0
   -4.4920    0.9062  -16.9834 H   0  0  0  0  0  0  0  0  0  0  0  0
   -2.9091    2.1402  -18.4443 H   0  0  0  0  0  0  0  0  0  0  0  0
   -2.0521    2.6845  -20.7038 H   0  0  0  0  0  0  0  0  0  0  0  0
   -3.0335    1.5436  -22.7024 H   0  0  0  0  0  0  0  0  0  0  0  0
   -4.8894   -0.0682  -22.4422 H   0  0  0  0  0  0  0  0  0  0  0  0
  1  2  2  0
  2  3  1  0
  3  4  1  0
  4  5  2  0
  5  6  1  0
  6  7  2  0
  7  8  1  0
  7  9  1  0
  9 10  1  0
  9 11  2  0
  3 12  1  0
 12 13  1  0
 13 14  1  0
 13 15  1  0
 15 16  1  0
 16 17  1  0
 17 18  2  0
 18 19  1  0
 19 20  2  0
 20 21  1  0
 21 22  2  0
 22 23  1  0
 23 24  2  0
 24 25  1  0
 25 26  2  0
 16  2  1  0
 26 17  1  0
 11  4  1  0
 26 21  1  0
  3 27  1  1
  5 28  1  0
  6 29  1  0
 11 30  1  0
 12 31  1  0
 12 32  1  0
 13 33  1  6
 14 34  1  0
 15 35  1  0
 15 36  1  0
 18 37  1  0
 20 38  1  0
 22 39  1  0
 23 40  1  0
 24 41  1  0
 25 42  1  0
M  END
