
     RDKit          3D

 42 45  0  0  0  0  0  0  0  0999 V2000
   -8.9409    0.2984  -21.1190 O   0  0  0  0  0  0  0  0  0  0  0  0
   -8.4726   -0.7811  -21.4098 C   0  0  0  0  0  0  0  0  0  0  0  0
   -9.2362   -1.9174  -22.0952 C   0  0  1  0  0  0  0  0  0  0  0  0
  -10.5973   -1.4805  -22.5788 C   0  0  0  0  0  0  0  0  0  0  0  0
  -10.7564   -0.4884  -23.5427 C   0  0  0  0  0  0  0  0  0  0  0  0
  -12.0305   -0.0679  -23.8905 C   0  0  0  0  0  0  0  0  0  0  0  0
  -13.1597   -0.6522  -23.3261 C   0  0  0  0  0  0  0  0  0  0  0  0
  -14.7215   -0.0629  -23.7407 Cl  0  0  0  0  0  0  0  0  0  0  0  0
  -13.0158   -1.6950  -22.4169 C   0  0  0  0  0  0  0  0  0  0  0  0
  -14.3909   -2.4848  -21.7201 Cl  0  0  0  0  0  0  0  0  0  0  0  0
  -11.7356   -2.0898  -22.0485 C   0  0  0  0  0  0  0  0  0  0  0  0
   -8.3534   -2.5744  -23.1581 C   0  0  0  0  0  0  0  0  0  0  0  0
   -7.1181   -3.1690  -22.4959 C   0  0  2  0  0  0  0  0  0  0  0  0
   -7.4615   -4.2262  -21.6110 O   0  0  0  0  0  0  0  0  0  0  0  0
   -6.3540   -2.1086  -21.7122 C   0  0  0  0  0  0  0  0  0  0  0  0
   -7.1800   -1.1121  -21.0409 N   0  0  0  0  0  0  0  0  0  0  0  0
   -6.5811   -0.3283  -20.0090 C   0  0  0  0  0  0  0  0  0  0  0  0
   -6.9647   -0.5129  -18.7045 C   0  0  0  0  0  0  0  0  0  0  0  0
   -6.3926    0.0931  -17.6305 N   0  0  0  0  0  0  0  0  0  0  0  0
   -5.4255    0.9519  -17.8654 C   0  0  0  0  0  0  0  0  0  0  0  0
   -4.9510    1.2752  -19.1730 C   0  0  0  0  0  0  0  0  0  0  0  0
   -3.9315    2.2452  -19.3868 C   0  0  0  0  0  0  0  0  0  0  0  0
   -3.4940    2.5346  -20.6506 C   0  0  0  0  0  0  0  0  0  0  0  0
   -4.0801    1.8803  -21.7656 C   0  0  0  0  0  0  0  0  0  0  0  0
   -5.0930    0.9658  -21.5916 C   0  0  0  0  0  0  0  0  0  0  0  0
   -5.5455    0.6273  -20.2854 C   0  0  0  0  0  0  0  0  0  0  0  0
   -9.3956   -2.6824  -21.3281 H   0  0  0  0  0  0  0  0  0  0  0  0
   -9.8968    0.0039  -23.9972 H   0  0  0  0  0  0  0  0  0  0  0  0
  -12.1650    0.7660  -24.5613 H   0  0  0  0  0  0  0  0  0  0  0  0
  -11.6519   -2.8835  -21.3134 H   0  0  0  0  0  0  0  0  0  0  0  0
   -8.9034   -3.3715  -23.6700 H   0  0  0  0  0  0  0  0  0  0  0  0
   -8.0590   -1.8510  -23.9272 H   0  0  0  0  0  0  0  0  0  0  0  0
   -6.4296   -3.5473  -23.2683 H   0  0  0  0  0  0  0  0  0  0  0  0
   -7.7256   -4.9808  -22.1536 H   0  0  0  0  0  0  0  0  0  0  0  0
   -5.7640   -2.6116  -20.9479 H   0  0  0  0  0  0  0  0  0  0  0  0
   -5.6428   -1.6269  -22.3930 H   0  0  0  0  0  0  0  0  0  0  0  0
   -7.7568   -1.2210  -18.4658 H   0  0  0  0  0  0  0  0  0  0  0  0
   -5.0459    1.5158  -17.0092 H   0  0  0  0  0  0  0  0  0  0  0  0
   -3.5107    2.7503  -18.5198 H   0  0  0  0  0  0  0  0  0  0  0  0
   -2.7125    3.2789  -20.8044 H   0  0  0  0  0  0  0  0  0  0  0  0
   -3.7280    2.1063  -22.7673 H   0  0  0  0  0  0  0  0  0  0  0  0
   -5.5600    0.4782  -22.4466 H   0  0  0  0  0  0  0  0  0  0  0  0
  1  2  2  0
  2  3  1  0
  3  4  1  0
  4  5  2  0
  5  6  1  0
  6  7  2  0
  7  8  1  0
  7  9  1  0
  9 10  1  0
  9 11  2  0
  3 12  1  0
 12 13  1  0
 13 14  1  0
 13 15  1  0
 15 16  1  0
 16 17  1  0
 17 18  2  0
 18 19  1  0
 19 20  2  0
 20 21  1  0
 21 22  2  0
 22 23  1  0
 23 24  2  0
 24 25  1  0
 25 26  2  0
 16  2  1  0
 26 17  1  0
 11  4  1  0
 26 21  1  0
  3 27  1  1
  5 28  1  0
  6 29  1  0
 11 30  1  0
 12 31  1  0
 12 32  1  0
 13 33  1  6
 14 34  1  0
 15 35  1  0
 15 36  1  0
 18 37  1  0
 20 38  1  0
 22 39  1  0
 23 40  1  0
 24 41  1  0
 25 42  1  0
M  END
$$$$
