
     RDKit          3D

 72 77  0  0  0  0  0  0  0  0999 V2000
    4.3585    5.8510   21.5849 C   0  0  0  0  0  0  0  0  0  0  0  0
    4.9467    5.2120   22.7558 N   0  0  0  0  0  0  0  0  0  0  0  0
    6.1113    4.3478   22.4328 C   0  0  0  0  0  0  0  0  0  0  0  0
    6.7395    3.7754   23.7006 C   0  0  0  0  0  0  0  0  0  0  0  0
    7.9230    2.9901   23.3966 N   0  0  0  0  0  0  0  0  0  0  0  0
    7.8555    1.5559   23.5645 C   0  0  0  0  0  0  0  0  0  0  0  0
    8.5702    0.8144   22.4051 C   0  0  2  0  0  0  0  0  0  0  0  0
    7.7889    1.0960   21.1047 C   0  0  0  0  0  0  0  0  0  0  0  0
    7.7645    2.1234   20.4604 O   0  0  0  0  0  0  0  0  0  0  0  0
    7.0546   -0.0283   20.7781 N   0  0  0  0  0  0  0  0  0  0  0  0
    6.0277    0.0052   19.8075 C   0  0  0  0  0  0  0  0  0  0  0  0
    6.1793   -0.6876   18.6349 C   0  0  0  0  0  0  0  0  0  0  0  0
    5.3199   -0.6084   17.5922 N   0  0  0  0  0  0  0  0  0  0  0  0
    4.2563    0.1477   17.7489 C   0  0  0  0  0  0  0  0  0  0  0  0
    3.9351    0.8469   18.9493 C   0  0  0  0  0  0  0  0  0  0  0  0
    2.7603    1.6308   19.0889 C   0  0  0  0  0  0  0  0  0  0  0  0
    2.4514    2.2227   20.2824 C   0  0  0  0  0  0  0  0  0  0  0  0
    3.3019    2.0596   21.3960 C   0  0  0  0  0  0  0  0  0  0  0  0
    4.4535    1.3205   21.2856 C   0  0  0  0  0  0  0  0  0  0  0  0
    4.8212    0.7343   20.0402 C   0  0  0  0  0  0  0  0  0  0  0  0
    7.1890   -1.1236   21.7144 C   0  0  0  0  0  0  0  0  0  0  0  0
    8.4348   -0.7132   22.5080 C   0  0  2  0  0  0  0  0  0  0  0  0
    8.4565   -1.2142   23.9297 C   0  0  0  0  0  0  0  0  0  0  0  0
    8.2662   -2.6031   23.9206 O   0  0  0  0  0  0  0  0  0  0  0  0
    8.3727   -3.1272   25.2171 C   0  0  0  0  0  0  0  0  0  0  0  0
    9.8004   -3.0277   25.7231 C   0  0  0  0  0  0  0  0  0  0  0  0
   10.8078   -3.7097   24.7540 C   0  0  0  0  0  0  0  0  0  0  0  0
   10.9601   -5.0898   25.9115 S   0  0  0  0  0  0  0  0  0  0  0  0
   12.3043   -5.2079   26.4357 O   0  0  0  0  0  0  0  0  0  0  0  0
   10.2035   -6.2306   25.4147 O   0  0  0  0  0  0  0  0  0  0  0  0
    9.9962   -3.9514   26.9342 C   0  0  0  0  0  0  0  0  0  0  0  0
    9.9896    1.3371   22.3798 C   0  0  0  0  0  0  0  0  0  0  0  0
   11.1274    0.5338   22.2208 C   0  0  0  0  0  0  0  0  0  0  0  0
   12.3612    1.1298   22.0253 C   0  0  0  0  0  0  0  0  0  0  0  0
   13.7293    0.0911   21.7562 Cl  0  0  0  0  0  0  0  0  0  0  0  0
   12.5275    2.5144   22.0450 C   0  0  0  0  0  0  0  0  0  0  0  0
   11.4268    3.2987   22.3342 C   0  0  0  0  0  0  0  0  0  0  0  0
   10.1763    2.7175   22.5306 C   0  0  0  0  0  0  0  0  0  0  0  0
    9.0510    3.6210   22.9598 C   0  0  0  0  0  0  0  0  0  0  0  0
    9.1525    4.8412   22.9221 O   0  0  0  0  0  0  0  0  0  0  0  0
    4.0348    5.0968   20.8649 H   0  0  0  0  0  0  0  0  0  0  0  0
    5.0977    6.4786   21.0840 H   0  0  0  0  0  0  0  0  0  0  0  0
    3.5096    6.4670   21.8616 H   0  0  0  0  0  0  0  0  0  0  0  0
    5.2658    5.9417   23.4288 H   0  0  0  0  0  0  0  0  0  0  0  0
    4.2301    4.6185   23.2299 H   0  0  0  0  0  0  0  0  0  0  0  0
    6.8500    4.9256   21.8759 H   0  0  0  0  0  0  0  0  0  0  0  0
    5.7813    3.5326   21.7850 H   0  0  0  0  0  0  0  0  0  0  0  0
    6.9970    4.5629   24.4210 H   0  0  0  0  0  0  0  0  0  0  0  0
    6.0379    3.0879   24.1911 H   0  0  0  0  0  0  0  0  0  0  0  0
    8.3151    1.2864   24.5247 H   0  0  0  0  0  0  0  0  0  0  0  0
    6.7967    1.2672   23.5835 H   0  0  0  0  0  0  0  0  0  0  0  0
    7.0512   -1.3285   18.4951 H   0  0  0  0  0  0  0  0  0  0  0  0
    3.5718    0.2178   16.9049 H   0  0  0  0  0  0  0  0  0  0  0  0
    2.1229    1.7583   18.2224 H   0  0  0  0  0  0  0  0  0  0  0  0
    1.5490    2.8188   20.3752 H   0  0  0  0  0  0  0  0  0  0  0  0
    3.0465    2.5293   22.3402 H   0  0  0  0  0  0  0  0  0  0  0  0
    5.0937    1.1847   22.1534 H   0  0  0  0  0  0  0  0  0  0  0  0
    6.2983   -1.2299   22.3556 H   0  0  0  0  0  0  0  0  0  0  0  0
    7.3352   -2.0698   21.1816 H   0  0  0  0  0  0  0  0  0  0  0  0
    9.2811   -1.1507   21.9763 H   0  0  0  0  0  0  0  0  0  0  0  0
    7.6560   -0.7528   24.5284 H   0  0  0  0  0  0  0  0  0  0  0  0
    9.4203   -0.9328   24.3828 H   0  0  0  0  0  0  0  0  0  0  0  0
    8.0511   -4.1714   25.1555 H   0  0  0  0  0  0  0  0  0  0  0  0
    7.6879   -2.6085   25.9076 H   0  0  0  0  0  0  0  0  0  0  0  0
   10.0821   -1.9987   25.9554 H   0  0  0  0  0  0  0  0  0  0  0  0
   10.3998   -4.0383   23.7958 H   0  0  0  0  0  0  0  0  0  0  0  0
   11.7677   -3.2015   24.6176 H   0  0  0  0  0  0  0  0  0  0  0  0
    9.0988   -4.3818   27.3723 H   0  0  0  0  0  0  0  0  0  0  0  0
   10.6482   -3.5501   27.7085 H   0  0  0  0  0  0  0  0  0  0  0  0
   11.0789   -0.5507   22.2395 H   0  0  0  0  0  0  0  0  0  0  0  0
   13.5009    2.9456   21.8323 H   0  0  0  0  0  0  0  0  0  0  0  0
   11.5082    4.3743   22.4465 H   0  0  0  0  0  0  0  0  0  0  0  0
  1  2  1  0
  2  3  1  0
  3  4  1  0
  4  5  1  0
  5  6  1  0
  7  6  1  1
  7  8  1  0
  8  9  2  0
  8 10  1  0
 10 11  1  0
 11 12  2  0
 12 13  1  0
 13 14  2  0
 14 15  1  0
 15 16  2  0
 16 17  1  0
 17 18  2  0
 18 19  1  0
 19 20  2  0
 10 21  1  0
 21 22  1  0
 22 23  1  0
 23 24  1  0
 24 25  1  0
 25 26  1  0
 26 27  1  0
 27 28  1  0
 28 29  2  0
 28 30  2  0
 28 31  1  0
  7 32  1  0
 32 33  2  0
 33 34  1  0
 34 35  1  0
 34 36  2  0
 36 37  1  0
 37 38  2  0
 38 39  1  0
 39 40  2  0
 39  5  1  0
 22  7  1  0
 31 26  1  0
 38 32  1  0
 20 11  1  0
 20 15  1  0
  1 41  1  0
  1 42  1  0
  1 43  1  0
  2 44  1  0
  2 45  1  0
  3 46  1  0
  3 47  1  0
  4 48  1  0
  4 49  1  0
  6 50  1  0
  6 51  1  0
 12 52  1  0
 14 53  1  0
 16 54  1  0
 17 55  1  0
 18 56  1  0
 19 57  1  0
 21 58  1  0
 21 59  1  0
 22 60  1  6
 23 61  1  0
 23 62  1  0
 25 63  1  0
 25 64  1  0
 26 65  1  0
 27 66  1  0
 27 67  1  0
 31 68  1  0
 31 69  1  0
 33 70  1  0
 36 71  1  0
 37 72  1  0
M  CHG  1   2   1
M  END
$$$$
