
     RDKit          3D

 46 48  0  0  0  0  0  0  0  0999 V2000
    6.6960    5.2395   21.5880 C   0  0  0  0  0  0  0  0  0  0  0  0
    6.6659    3.7092   21.6152 C   0  0  0  0  0  0  0  0  0  0  0  0
    8.0439    3.0204   21.7604 C   0  0  1  0  0  0  0  0  0  0  0  0
    9.0351    3.6243   22.7525 C   0  0  0  0  0  0  0  0  0  0  0  0
    8.9062    3.1226   24.1933 C   0  0  1  0  0  0  0  0  0  0  0  0
    7.8324    3.8571   24.9973 C   0  0  0  0  0  0  0  0  0  0  0  0
    8.0707    5.1863   25.0265 F   0  0  0  0  0  0  0  0  0  0  0  0
    6.5704    3.7075   24.5297 F   0  0  0  0  0  0  0  0  0  0  0  0
    7.7700    3.4066   26.2697 F   0  0  0  0  0  0  0  0  0  0  0  0
    8.7436    1.6117   24.3204 C   0  0  0  0  0  0  0  0  0  0  0  0
    7.6456    1.0934   23.4099 C   0  0  0  0  0  0  0  0  0  0  0  0
    7.8741    1.5841   22.0501 N   0  0  0  0  0  0  0  0  0  0  0  0
    7.7026    0.7881   20.9613 C   0  0  0  0  0  0  0  0  0  0  0  0
    8.1704    1.0696   19.8762 O   0  0  0  0  0  0  0  0  0  0  0  0
    6.8166   -0.4482   21.0776 C   0  0  0  0  0  0  0  0  0  0  0  0
    5.8071   -0.3005   19.9874 C   0  0  0  0  0  0  0  0  0  0  0  0
    6.0715   -0.8165   18.7475 C   0  0  0  0  0  0  0  0  0  0  0  0
    5.3017   -0.6234   17.6526 N   0  0  0  0  0  0  0  0  0  0  0  0
    4.2346    0.1296   17.8077 C   0  0  0  0  0  0  0  0  0  0  0  0
    3.8651    0.7591   19.0288 C   0  0  0  0  0  0  0  0  0  0  0  0
    2.7098    1.5709   19.1420 C   0  0  0  0  0  0  0  0  0  0  0  0
    2.3721    2.1545   20.3329 C   0  0  0  0  0  0  0  0  0  0  0  0
    3.2187    2.0085   21.4523 C   0  0  0  0  0  0  0  0  0  0  0  0
    4.3690    1.2612   21.3565 C   0  0  0  0  0  0  0  0  0  0  0  0
    4.6966    0.5711   20.1558 C   0  0  0  0  0  0  0  0  0  0  0  0
    7.1102    5.6337   22.5252 H   0  0  0  0  0  0  0  0  0  0  0  0
    5.6760    5.6265   21.4887 H   0  0  0  0  0  0  0  0  0  0  0  0
    7.2751    5.6505   20.7526 H   0  0  0  0  0  0  0  0  0  0  0  0
    6.1953    3.3115   20.7033 H   0  0  0  0  0  0  0  0  0  0  0  0
    6.0181    3.3973   22.4396 H   0  0  0  0  0  0  0  0  0  0  0  0
    8.5209    3.0567   20.7747 H   0  0  0  0  0  0  0  0  0  0  0  0
   10.0452    3.3653   22.4099 H   0  0  0  0  0  0  0  0  0  0  0  0
    9.0001    4.7193   22.7275 H   0  0  0  0  0  0  0  0  0  0  0  0
    9.8669    3.3562   24.6490 H   0  0  0  0  0  0  0  0  0  0  0  0
    8.5080    1.3609   25.3616 H   0  0  0  0  0  0  0  0  0  0  0  0
    9.6906    1.1250   24.0449 H   0  0  0  0  0  0  0  0  0  0  0  0
    6.6527    1.3683   23.8026 H   0  0  0  0  0  0  0  0  0  0  0  0
    7.7135   -0.0006   23.3931 H   0  0  0  0  0  0  0  0  0  0  0  0
    7.4533   -1.3230   20.9024 H   0  0  0  0  0  0  0  0  0  0  0  0
    6.3296   -0.5447   22.0500 H   0  0  0  0  0  0  0  0  0  0  0  0
    6.9812   -1.3962   18.5940 H   0  0  0  0  0  0  0  0  0  0  0  0
    3.5958    0.2643   16.9368 H   0  0  0  0  0  0  0  0  0  0  0  0
    2.0931    1.7186   18.2627 H   0  0  0  0  0  0  0  0  0  0  0  0
    1.4611    2.7374   20.4180 H   0  0  0  0  0  0  0  0  0  0  0  0
    2.9527    2.4877   22.3899 H   0  0  0  0  0  0  0  0  0  0  0  0
    5.0374    1.2319   22.2150 H   0  0  0  0  0  0  0  0  0  0  0  0
  1  2  1  0
  2  3  1  0
  3  4  1  0
  4  5  1  0
  5  6  1  0
  6  7  1  0
  6  8  1  0
  6  9  1  0
  5 10  1  0
 10 11  1  0
 11 12  1  0
 12 13  1  0
 13 14  2  0
 13 15  1  0
 15 16  1  0
 16 17  2  0
 17 18  1  0
 18 19  2  0
 19 20  1  0
 20 21  2  0
 21 22  1  0
 22 23  2  0
 23 24  1  0
 24 25  2  0
 12  3  1  0
 25 16  1  0
 25 20  1  0
  1 26  1  0
  1 27  1  0
  1 28  1  0
  2 29  1  0
  2 30  1  0
  3 31  1  6
  4 32  1  0
  4 33  1  0
  5 34  1  1
 10 35  1  0
 10 36  1  0
 11 37  1  0
 11 38  1  0
 15 39  1  0
 15 40  1  0
 17 41  1  0
 19 42  1  0
 21 43  1  0
 22 44  1  0
 23 45  1  0
 24 46  1  0
M  END
$$$$
