
     RDKit          3D

 43 47  0  0  0  0  0  0  0  0999 V2000
   -5.4441   -2.2058  -21.6746 O   0  0  0  0  0  0  0  0  0  0  0  0
   -6.5223   -1.6881  -21.8498 C   0  0  0  0  0  0  0  0  0  0  0  0
   -7.5155   -2.0402  -22.7216 N   0  0  0  0  0  0  0  0  0  0  0  0
   -8.6584   -1.1566  -22.6981 C   0  0  2  0  0  0  0  0  0  0  0  0
  -10.0519   -1.8016  -22.5111 C   0  0  0  0  0  0  0  0  0  0  0  0
  -10.5270   -1.0382  -23.7501 C   0  0  2  0  0  0  0  0  0  0  0  0
  -11.7900   -0.2780  -23.6380 C   0  0  0  0  0  0  0  0  0  0  0  0
  -11.6256   -1.2778  -24.6647 C   0  0  0  0  0  0  0  0  0  0  0  0
  -11.4157   -4.1256  -23.9441 C   0  0  0  0  0  0  0  0  0  0  0  0
  -12.5345   -3.7918  -23.2518 C   0  0  0  0  0  0  0  0  0  0  0  0
  -13.1454   -2.5673  -23.0843 C   0  0  0  0  0  0  0  0  0  0  0  0
  -12.8488   -1.3401  -23.8542 C   0  0  0  0  0  0  0  0  0  0  0  0
  -14.3814   -0.6437  -24.4785 Cl  0  0  0  0  0  0  0  0  0  0  0  0
   -9.1256   -0.4723  -24.0071 C   0  0  0  0  0  0  0  0  0  0  0  0
   -8.2765   -0.1652  -21.6187 C   0  0  0  0  0  0  0  0  0  0  0  0
   -8.9384    0.7620  -21.2196 O   0  0  0  0  0  0  0  0  0  0  0  0
   -7.0075   -0.5448  -21.1798 N   0  0  0  0  0  0  0  0  0  0  0  0
   -6.3298    0.0326  -20.0775 C   0  0  0  0  0  0  0  0  0  0  0  0
   -6.7822   -0.1949  -18.8050 C   0  0  0  0  0  0  0  0  0  0  0  0
   -6.1420    0.2167  -17.6827 N   0  0  0  0  0  0  0  0  0  0  0  0
   -5.0414    0.9152  -17.8458 C   0  0  0  0  0  0  0  0  0  0  0  0
   -4.4822    1.2490  -19.1139 C   0  0  0  0  0  0  0  0  0  0  0  0
   -3.2877    2.0056  -19.2417 C   0  0  0  0  0  0  0  0  0  0  0  0
   -2.7888    2.3075  -20.4782 C   0  0  0  0  0  0  0  0  0  0  0  0
   -3.4534    1.8665  -21.6443 C   0  0  0  0  0  0  0  0  0  0  0  0
   -4.6081    1.1327  -21.5525 C   0  0  0  0  0  0  0  0  0  0  0  0
   -5.1456    0.8019  -20.2770 C   0  0  0  0  0  0  0  0  0  0  0  0
   -7.4223   -2.8196  -23.3487 H   0  0  0  0  0  0  0  0  0  0  0  0
  -10.0263   -2.8956  -22.5455 H   0  0  0  0  0  0  0  0  0  0  0  0
  -10.6268   -1.4817  -21.6361 H   0  0  0  0  0  0  0  0  0  0  0  0
  -11.9374    0.7646  -23.3482 H   0  0  0  0  0  0  0  0  0  0  0  0
  -10.8679   -3.3836  -24.4881 H   0  0  0  0  0  0  0  0  0  0  0  0
  -10.9981   -5.1254  -23.9484 H   0  0  0  0  0  0  0  0  0  0  0  0
  -13.0760   -4.6304  -22.8044 H   0  0  0  0  0  0  0  0  0  0  0  0
  -14.0511   -2.5263  -22.4955 H   0  0  0  0  0  0  0  0  0  0  0  0
   -8.6301   -0.8454  -24.9095 H   0  0  0  0  0  0  0  0  0  0  0  0
   -9.0523    0.6157  -23.9654 H   0  0  0  0  0  0  0  0  0  0  0  0
   -7.6921   -0.7689  -18.6471 H   0  0  0  0  0  0  0  0  0  0  0  0
   -4.5329    1.2567  -16.9433 H   0  0  0  0  0  0  0  0  0  0  0  0
   -2.7917    2.3395  -18.3364 H   0  0  0  0  0  0  0  0  0  0  0  0
   -1.8797    2.8942  -20.5770 H   0  0  0  0  0  0  0  0  0  0  0  0
   -3.0474    2.1121  -22.6204 H   0  0  0  0  0  0  0  0  0  0  0  0
   -5.1211    0.8077  -22.4536 H   0  0  0  0  0  0  0  0  0  0  0  0
  1  2  2  0
  2  3  1  0
  4  3  1  1
  4  5  1  0
  5  6  1  0
  6  7  1  0
  7  8  2  0
  8  9  1  0
  9 10  2  0
 10 11  1  0
 11 12  2  0
 12 13  1  0
  6 14  1  0
  4 15  1  0
 15 16  2  0
 15 17  1  0
 17 18  1  0
 18 19  2  0
 19 20  1  0
 20 21  2  0
 21 22  1  0
 22 23  2  0
 23 24  1  0
 24 25  2  0
 25 26  1  0
 26 27  2  0
 17  2  1  0
 27 18  1  0
 14  4  1  0
 27 22  1  0
 12  7  1  0
  3 28  1  0
  5 29  1  0
  5 30  1  0
  6 31  1  1
  8 32  1  0
  9 33  1  0
 10 34  1  0
 11 35  1  0
 14 36  1  0
 14 37  1  0
 19 38  1  0
 21 39  1  0
 23 40  1  0
 24 41  1  0
 25 42  1  0
 26 43  1  0
M  END
$$$$
