
     RDKit          3D

 60 65  0  0  0  0  0  0  0  0999 V2000
    7.1161    5.1404   27.1927 C   0  0  0  0  0  0  0  0  0  0  0  0
    7.2799    4.8241   25.7903 N   0  0  0  0  0  0  0  0  0  0  0  0
    6.4885    3.8701   25.2403 C   0  0  0  0  0  0  0  0  0  0  0  0
    5.7152    3.1929   25.8989 O   0  0  0  0  0  0  0  0  0  0  0  0
    6.6249    3.7005   23.7258 C   0  0  0  0  0  0  0  0  0  0  0  0
    7.7757    2.9037   23.3497 N   0  0  0  0  0  0  0  0  0  0  0  0
    7.7590    1.4553   23.5703 C   0  0  0  0  0  0  0  0  0  0  0  0
    8.4699    0.7094   22.4016 C   0  0  2  0  0  0  0  0  0  0  0  0
    7.6435    0.9542   21.1104 C   0  0  0  0  0  0  0  0  0  0  0  0
    7.5804    1.9485   20.4278 O   0  0  0  0  0  0  0  0  0  0  0  0
    6.9192   -0.1893   20.8365 N   0  0  0  0  0  0  0  0  0  0  0  0
    5.8994   -0.1507   19.8580 C   0  0  0  0  0  0  0  0  0  0  0  0
    6.0729   -0.7932   18.6610 C   0  0  0  0  0  0  0  0  0  0  0  0
    5.2544   -0.6530   17.5914 N   0  0  0  0  0  0  0  0  0  0  0  0
    4.2035    0.1218   17.7415 C   0  0  0  0  0  0  0  0  0  0  0  0
    3.8596    0.7771   18.9583 C   0  0  0  0  0  0  0  0  0  0  0  0
    2.6937    1.5775   19.0834 C   0  0  0  0  0  0  0  0  0  0  0  0
    2.3606    2.1474   20.2814 C   0  0  0  0  0  0  0  0  0  0  0  0
    3.1884    1.9616   21.4104 C   0  0  0  0  0  0  0  0  0  0  0  0
    4.3371    1.2178   21.3099 C   0  0  0  0  0  0  0  0  0  0  0  0
    4.7129    0.6193   20.0703 C   0  0  0  0  0  0  0  0  0  0  0  0
    7.1540   -1.2811   21.7491 C   0  0  0  0  0  0  0  0  0  0  0  0
    8.4118   -0.8417   22.5164 C   0  0  2  0  0  0  0  0  0  0  0  0
    8.4377   -1.4593   23.9251 C   0  0  0  0  0  0  0  0  0  0  0  0
    9.7217   -1.2199   24.6577 C   0  0  0  0  0  0  0  0  0  0  0  0
    9.8728   -0.4002   25.6875 N   0  0  0  0  0  0  0  0  0  0  0  0
   11.1666   -0.4700   26.0033 N   0  0  0  0  0  0  0  0  0  0  0  0
   11.7632   -1.3021   25.2006 N   0  0  0  0  0  0  0  0  0  0  0  0
   10.8738   -1.7963   24.3355 N   0  0  0  0  0  0  0  0  0  0  0  0
    9.8670    1.3241   22.3310 C   0  0  0  0  0  0  0  0  0  0  0  0
   11.0497    0.5886   22.1741 C   0  0  0  0  0  0  0  0  0  0  0  0
   12.2488    1.2456   21.9437 C   0  0  0  0  0  0  0  0  0  0  0  0
   13.7195    0.3319   21.7976 Cl  0  0  0  0  0  0  0  0  0  0  0  0
   12.3003    2.6287   21.7798 C   0  0  0  0  0  0  0  0  0  0  0  0
   11.1477    3.3616   21.9529 C   0  0  0  0  0  0  0  0  0  0  0  0
    9.9844    2.7253   22.3792 C   0  0  0  0  0  0  0  0  0  0  0  0
    8.9181    3.5723   23.0100 C   0  0  0  0  0  0  0  0  0  0  0  0
    9.0716    4.7677   23.2642 O   0  0  0  0  0  0  0  0  0  0  0  0
    7.8924    5.8406   27.5051 H   0  0  0  0  0  0  0  0  0  0  0  0
    6.1348    5.5884   27.3769 H   0  0  0  0  0  0  0  0  0  0  0  0
    7.1717    4.2324   27.7986 H   0  0  0  0  0  0  0  0  0  0  0  0
    8.0216    5.2363   25.2403 H   0  0  0  0  0  0  0  0  0  0  0  0
    5.7106    3.2351   23.3402 H   0  0  0  0  0  0  0  0  0  0  0  0
    6.7604    4.6756   23.2492 H   0  0  0  0  0  0  0  0  0  0  0  0
    8.3044    1.2012   24.4931 H   0  0  0  0  0  0  0  0  0  0  0  0
    6.7132    1.1378   23.6826 H   0  0  0  0  0  0  0  0  0  0  0  0
    6.9427   -1.4336   18.5196 H   0  0  0  0  0  0  0  0  0  0  0  0
    3.5482    0.2385   16.8790 H   0  0  0  0  0  0  0  0  0  0  0  0
    2.0794    1.7367   18.2042 H   0  0  0  0  0  0  0  0  0  0  0  0
    1.4596    2.7476   20.3707 H   0  0  0  0  0  0  0  0  0  0  0  0
    2.9147    2.4214   22.3567 H   0  0  0  0  0  0  0  0  0  0  0  0
    4.9689    1.0830   22.1840 H   0  0  0  0  0  0  0  0  0  0  0  0
    7.3013   -2.2198   21.2032 H   0  0  0  0  0  0  0  0  0  0  0  0
    6.3085   -1.4255   22.4372 H   0  0  0  0  0  0  0  0  0  0  0  0
    9.2718   -1.2234   21.9591 H   0  0  0  0  0  0  0  0  0  0  0  0
    8.2936   -2.5396   23.8472 H   0  0  0  0  0  0  0  0  0  0  0  0
    7.6121   -1.0627   24.5211 H   0  0  0  0  0  0  0  0  0  0  0  0
   11.0571   -0.4863   22.2797 H   0  0  0  0  0  0  0  0  0  0  0  0
   13.2352    3.1340   21.5813 H   0  0  0  0  0  0  0  0  0  0  0  0
   11.1454    4.4364   21.7926 H   0  0  0  0  0  0  0  0  0  0  0  0
  1  2  1  0
  2  3  1  0
  3  4  2  0
  3  5  1  0
  5  6  1  0
  6  7  1  0
  8  7  1  1
  8  9  1  0
  9 10  2  0
  9 11  1  0
 11 12  1  0
 12 13  2  0
 13 14  1  0
 14 15  2  0
 15 16  1  0
 16 17  2  0
 17 18  1  0
 18 19  2  0
 19 20  1  0
 20 21  2  0
 11 22  1  0
 22 23  1  0
 23 24  1  0
 24 25  1  0
 25 26  1  0
 26 27  2  0
 27 28  1  0
 28 29  1  0
  8 30  1  0
 30 31  2  0
 31 32  1  0
 32 33  1  0
 32 34  2  0
 34 35  1  0
 35 36  2  0
 36 37  1  0
 37 38  2  0
 37  6  1  0
 23  8  1  0
 29 25  2  0
 36 30  1  0
 21 12  1  0
 21 16  1  0
  1 39  1  0
  1 40  1  0
  1 41  1  0
  2 42  1  0
  5 43  1  0
  5 44  1  0
  7 45  1  0
  7 46  1  0
 13 47  1  0
 15 48  1  0
 17 49  1  0
 18 50  1  0
 19 51  1  0
 20 52  1  0
 22 53  1  0
 22 54  1  0
 23 55  1  6
 24 56  1  0
 24 57  1  0
 31 58  1  0
 34 59  1  0
 35 60  1  0
M  CHG  1  28  -1
M  END
$$$$
