
     RDKit          3D

 66 71  0  0  0  0  0  0  0  0999 V2000
   -7.0232    3.6222  -22.4634 C   0  0  0  0  0  0  0  0  0  0  0  0
   -7.7403    2.6360  -23.2375 N   0  0  0  0  0  0  0  0  0  0  0  0
   -7.4736    2.5141  -24.5532 C   0  0  0  0  0  0  0  0  0  0  0  0
   -6.7128    3.2526  -25.1626 O   0  0  0  0  0  0  0  0  0  0  0  0
   -8.1595    1.3743  -25.3238 C   0  0  0  0  0  0  0  0  0  0  0  0
   -8.9745    0.4591  -24.5566 N   0  0  0  0  0  0  0  0  0  0  0  0
   -8.4956   -0.8904  -24.2835 C   0  0  0  0  0  0  0  0  0  0  0  0
   -9.0705   -1.4333  -22.9407 C   0  0  2  0  0  0  0  0  0  0  0  0
   -8.4600   -0.5777  -21.7933 C   0  0  0  0  0  0  0  0  0  0  0  0
   -8.7286    0.5750  -21.5117 O   0  0  0  0  0  0  0  0  0  0  0  0
   -7.4896   -1.3169  -21.1629 N   0  0  0  0  0  0  0  0  0  0  0  0
   -6.6538   -0.7997  -20.1313 C   0  0  0  0  0  0  0  0  0  0  0  0
   -6.8725   -1.1714  -18.8270 C   0  0  0  0  0  0  0  0  0  0  0  0
   -6.0957   -0.8011  -17.7796 N   0  0  0  0  0  0  0  0  0  0  0  0
   -5.0658   -0.0306  -18.0277 C   0  0  0  0  0  0  0  0  0  0  0  0
   -4.7367    0.4531  -19.3246 C   0  0  0  0  0  0  0  0  0  0  0  0
   -3.6466    1.3390  -19.5316 C   0  0  0  0  0  0  0  0  0  0  0  0
   -3.3219    1.7552  -20.7915 C   0  0  0  0  0  0  0  0  0  0  0  0
   -4.0586    1.2911  -21.9042 C   0  0  0  0  0  0  0  0  0  0  0  0
   -5.1374    0.4577  -21.7294 C   0  0  0  0  0  0  0  0  0  0  0  0
   -5.5251    0.0339  -20.4256 C   0  0  0  0  0  0  0  0  0  0  0  0
   -7.2262   -2.5853  -21.8201 C   0  0  0  0  0  0  0  0  0  0  0  0
   -8.5507   -2.8394  -22.5415 C   0  0  2  0  0  0  0  0  0  0  0  0
   -8.5085   -3.8644  -23.6830 C   0  0  0  0  0  0  0  0  0  0  0  0
   -8.2529   -5.2216  -23.2476 N   0  0  0  0  0  0  0  0  0  0  0  0
   -6.9737   -5.6947  -23.1597 C   0  0  0  0  0  0  0  0  0  0  0  0
   -6.6877   -6.8963  -22.4703 C   0  0  0  0  0  0  0  0  0  0  0  0
   -5.4637   -7.3732  -22.3483 N   0  0  0  0  0  0  0  0  0  0  0  0
   -4.4798   -6.6723  -22.9412 C   0  0  0  0  0  0  0  0  0  0  0  0
   -4.7643   -5.5178  -23.6524 C   0  0  0  0  0  0  0  0  0  0  0  0
   -6.0003   -5.0121  -23.7569 N   0  0  0  0  0  0  0  0  0  0  0  0
  -10.5807   -1.3167  -23.0468 C   0  0  0  0  0  0  0  0  0  0  0  0
  -11.4741   -2.2984  -22.5948 C   0  0  0  0  0  0  0  0  0  0  0  0
  -12.8309   -2.0285  -22.5596 C   0  0  0  0  0  0  0  0  0  0  0  0
  -13.9085   -3.1901  -21.8359 Cl  0  0  0  0  0  0  0  0  0  0  0  0
  -13.3583   -0.8348  -23.0519 C   0  0  0  0  0  0  0  0  0  0  0  0
  -12.4915    0.1028  -23.5744 C   0  0  0  0  0  0  0  0  0  0  0  0
  -11.1208   -0.1460  -23.5974 C   0  0  0  0  0  0  0  0  0  0  0  0
  -10.2391    0.8749  -24.2428 C   0  0  0  0  0  0  0  0  0  0  0  0
  -10.6278    2.0106  -24.4737 O   0  0  0  0  0  0  0  0  0  0  0  0
   -7.1587    3.3883  -21.4033 H   0  0  0  0  0  0  0  0  0  0  0  0
   -5.9634    3.5718  -22.7275 H   0  0  0  0  0  0  0  0  0  0  0  0
   -7.3697    4.6440  -22.6586 H   0  0  0  0  0  0  0  0  0  0  0  0
   -8.2660    1.9306  -22.7299 H   0  0  0  0  0  0  0  0  0  0  0  0
   -8.7701    1.8367  -26.1095 H   0  0  0  0  0  0  0  0  0  0  0  0
   -7.3663    0.8099  -25.8267 H   0  0  0  0  0  0  0  0  0  0  0  0
   -7.4006   -0.8493  -24.2406 H   0  0  0  0  0  0  0  0  0  0  0  0
   -8.7814   -1.5552  -25.1110 H   0  0  0  0  0  0  0  0  0  0  0  0
   -7.7177   -1.8132  -18.5829 H   0  0  0  0  0  0  0  0  0  0  0  0
   -4.4394    0.2665  -17.1849 H   0  0  0  0  0  0  0  0  0  0  0  0
   -3.0937    1.6904  -18.6635 H   0  0  0  0  0  0  0  0  0  0  0  0
   -2.4982    2.4461  -20.9479 H   0  0  0  0  0  0  0  0  0  0  0  0
   -3.7864    1.6203  -22.9047 H   0  0  0  0  0  0  0  0  0  0  0  0
   -5.7008    0.1239  -22.5976 H   0  0  0  0  0  0  0  0  0  0  0  0
   -6.9917   -3.3512  -21.0807 H   0  0  0  0  0  0  0  0  0  0  0  0
   -6.3847   -2.5268  -22.5285 H   0  0  0  0  0  0  0  0  0  0  0  0
   -9.2217   -3.1861  -21.7457 H   0  0  0  0  0  0  0  0  0  0  0  0
   -9.4567   -3.8242  -24.2366 H   0  0  0  0  0  0  0  0  0  0  0  0
   -7.7033   -3.5963  -24.3760 H   0  0  0  0  0  0  0  0  0  0  0  0
   -8.9440   -5.6845  -22.6741 H   0  0  0  0  0  0  0  0  0  0  0  0
   -7.5019   -7.4611  -22.0270 H   0  0  0  0  0  0  0  0  0  0  0  0
   -3.4569   -7.0403  -22.8275 H   0  0  0  0  0  0  0  0  0  0  0  0
   -3.9838   -4.9557  -24.1640 H   0  0  0  0  0  0  0  0  0  0  0  0
  -11.1358   -3.2660  -22.2407 H   0  0  0  0  0  0  0  0  0  0  0  0
  -14.4261   -0.6497  -23.0115 H   0  0  0  0  0  0  0  0  0  0  0  0
  -12.8510    1.0403  -23.9859 H   0  0  0  0  0  0  0  0  0  0  0  0
  1  2  1  0
  2  3  1  0
  3  4  2  0
  3  5  1  0
  5  6  1  0
  6  7  1  0
  8  7  1  6
  8  9  1  0
  9 10  2  0
  9 11  1  0
 11 12  1  0
 12 13  2  0
 13 14  1  0
 14 15  2  0
 15 16  1  0
 16 17  2  0
 17 18  1  0
 18 19  2  0
 19 20  1  0
 20 21  2  0
 11 22  1  0
 22 23  1  0
 23 24  1  0
 24 25  1  0
 25 26  1  0
 26 27  2  0
 27 28  1  0
 28 29  2  0
 29 30  1  0
 30 31  2  0
  8 32  1  0
 32 33  2  0
 33 34  1  0
 34 35  1  0
 34 36  2  0
 36 37  1  0
 37 38  2  0
 38 39  1  0
 39 40  2  0
 39  6  1  0
 23  8  1  0
 31 26  1  0
 38 32  1  0
 21 12  1  0
 21 16  1  0
  1 41  1  0
  1 42  1  0
  1 43  1  0
  2 44  1  0
  5 45  1  0
  5 46  1  0
  7 47  1  0
  7 48  1  0
 13 49  1  0
 15 50  1  0
 17 51  1  0
 18 52  1  0
 19 53  1  0
 20 54  1  0
 22 55  1  0
 22 56  1  0
 23 57  1  1
 24 58  1  0
 24 59  1  0
 25 60  1  0
 27 61  1  0
 29 62  1  0
 30 63  1  0
 33 64  1  0
 36 65  1  0
 37 66  1  0
M  END
