
     RDKit          3D

 43 45  0  0  0  0  0  0  0  0999 V2000
  -13.8181   -2.8504  -22.2636 C   0  0  0  0  0  0  0  0  0  0  0  0
  -12.4837   -2.5842  -22.9672 C   0  0  0  0  0  0  0  0  0  0  0  0
  -12.6069   -3.0050  -24.4370 C   0  0  0  0  0  0  0  0  0  0  0  0
  -12.2055   -1.0667  -22.8954 C   0  0  0  0  0  0  0  0  0  0  0  0
  -10.7843   -0.7000  -23.3101 C   0  0  0  0  0  0  0  0  0  0  0  0
   -9.8104   -1.5061  -22.5840 N   0  0  0  0  0  0  0  0  0  0  0  0
   -8.8709   -0.8548  -21.8214 C   0  0  0  0  0  0  0  0  0  0  0  0
   -8.9753    0.3278  -21.5512 O   0  0  0  0  0  0  0  0  0  0  0  0
   -7.6453   -1.6683  -21.3861 C   0  0  0  0  0  0  0  0  0  0  0  0
   -6.8310   -1.0517  -20.2817 C   0  0  0  0  0  0  0  0  0  0  0  0
   -7.1735   -1.3147  -18.9816 C   0  0  0  0  0  0  0  0  0  0  0  0
   -6.4770   -0.9070  -17.8886 N   0  0  0  0  0  0  0  0  0  0  0  0
   -5.3978   -0.1938  -18.0964 C   0  0  0  0  0  0  0  0  0  0  0  0
   -4.9674    0.2304  -19.3833 C   0  0  0  0  0  0  0  0  0  0  0  0
   -3.8577    1.0976  -19.5568 C   0  0  0  0  0  0  0  0  0  0  0  0
   -3.4091    1.4050  -20.8133 C   0  0  0  0  0  0  0  0  0  0  0  0
   -4.0899    0.9069  -21.9520 C   0  0  0  0  0  0  0  0  0  0  0  0
   -5.1982    0.1084  -21.8084 C   0  0  0  0  0  0  0  0  0  0  0  0
   -5.6785   -0.2414  -20.5171 C   0  0  0  0  0  0  0  0  0  0  0  0
   -9.9547   -2.9455  -22.7365 C   0  0  0  0  0  0  0  0  0  0  0  0
  -11.3538   -3.4302  -22.3386 C   0  0  0  0  0  0  0  0  0  0  0  0
  -14.6058   -2.2480  -22.7337 H   0  0  0  0  0  0  0  0  0  0  0  0
  -14.1125   -3.9046  -22.3240 H   0  0  0  0  0  0  0  0  0  0  0  0
  -13.7782   -2.5810  -21.2021 H   0  0  0  0  0  0  0  0  0  0  0  0
  -12.8527   -4.0727  -24.4987 H   0  0  0  0  0  0  0  0  0  0  0  0
  -13.3940   -2.4336  -24.9429 H   0  0  0  0  0  0  0  0  0  0  0  0
  -11.6693   -2.8497  -24.9809 H   0  0  0  0  0  0  0  0  0  0  0  0
  -12.3830   -0.7060  -21.8805 H   0  0  0  0  0  0  0  0  0  0  0  0
  -12.9352   -0.5483  -23.5329 H   0  0  0  0  0  0  0  0  0  0  0  0
  -10.5430    0.3400  -23.0883 H   0  0  0  0  0  0  0  0  0  0  0  0
  -10.6547   -0.8482  -24.3919 H   0  0  0  0  0  0  0  0  0  0  0  0
   -7.9713   -2.6559  -21.0470 H   0  0  0  0  0  0  0  0  0  0  0  0
   -7.0520   -1.8332  -22.2943 H   0  0  0  0  0  0  0  0  0  0  0  0
   -8.0705   -1.8995  -18.7683 H   0  0  0  0  0  0  0  0  0  0  0  0
   -4.8433    0.1465  -17.2180 H   0  0  0  0  0  0  0  0  0  0  0  0
   -3.3863    1.5108  -18.6657 H   0  0  0  0  0  0  0  0  0  0  0  0
   -2.5380    2.0449  -20.9343 H   0  0  0  0  0  0  0  0  0  0  0  0
   -3.7291    1.1486  -22.9505 H   0  0  0  0  0  0  0  0  0  0  0  0
   -5.7293   -0.2644  -22.6841 H   0  0  0  0  0  0  0  0  0  0  0  0
   -9.7567   -3.2394  -23.7774 H   0  0  0  0  0  0  0  0  0  0  0  0
   -9.2078   -3.4463  -22.1221 H   0  0  0  0  0  0  0  0  0  0  0  0
  -11.4323   -3.4851  -21.2502 H   0  0  0  0  0  0  0  0  0  0  0  0
  -11.4839   -4.4670  -22.6713 H   0  0  0  0  0  0  0  0  0  0  0  0
  1  2  1  0
  2  3  1  0
  2  4  1  0
  4  5  1  0
  5  6  1  0
  6  7  1  0
  7  8  2  0
  7  9  1  0
  9 10  1  0
 10 11  2  0
 11 12  1  0
 12 13  2  0
 13 14  1  0
 14 15  2  0
 15 16  1  0
 16 17  2  0
 17 18  1  0
 18 19  2  0
  6 20  1  0
 20 21  1  0
 21  2  1  0
 19 10  1  0
 19 14  1  0
  1 22  1  0
  1 23  1  0
  1 24  1  0
  3 25  1  0
  3 26  1  0
  3 27  1  0
  4 28  1  0
  4 29  1  0
  5 30  1  0
  5 31  1  0
  9 32  1  0
  9 33  1  0
 11 34  1  0
 13 35  1  0
 15 36  1  0
 16 37  1  0
 17 38  1  0
 18 39  1  0
 20 40  1  0
 20 41  1  0
 21 42  1  0
 21 43  1  0
M  END
