
     RDKit          3D

 68 73  0  0  0  0  0  0  0  0999 V2000
   -7.0184    3.6315  -22.4824 C   0  0  0  0  0  0  0  0  0  0  0  0
   -7.7824    2.6811  -23.2631 N   0  0  0  0  0  0  0  0  0  0  0  0
   -7.4951    2.5192  -24.5715 C   0  0  0  0  0  0  0  0  0  0  0  0
   -6.7272    3.2471  -25.1874 O   0  0  0  0  0  0  0  0  0  0  0  0
   -8.1622    1.3626  -25.3220 C   0  0  0  0  0  0  0  0  0  0  0  0
   -8.9839    0.4626  -24.5554 N   0  0  0  0  0  0  0  0  0  0  0  0
   -8.4966   -0.8803  -24.2972 C   0  0  0  0  0  0  0  0  0  0  0  0
   -9.0732   -1.4386  -22.9723 C   0  0  2  0  0  0  0  0  0  0  0  0
   -8.4816   -0.5987  -21.8051 C   0  0  0  0  0  0  0  0  0  0  0  0
   -8.7789    0.5496  -21.5290 O   0  0  0  0  0  0  0  0  0  0  0  0
   -7.5200   -1.3348  -21.1540 N   0  0  0  0  0  0  0  0  0  0  0  0
   -6.6685   -0.8068  -20.1344 C   0  0  0  0  0  0  0  0  0  0  0  0
   -6.8935   -1.1573  -18.8249 C   0  0  0  0  0  0  0  0  0  0  0  0
   -6.1238   -0.7720  -17.7752 N   0  0  0  0  0  0  0  0  0  0  0  0
   -5.0990    0.0043  -18.0239 C   0  0  0  0  0  0  0  0  0  0  0  0
   -4.7537    0.4642  -19.3260 C   0  0  0  0  0  0  0  0  0  0  0  0
   -3.6690    1.3580  -19.5332 C   0  0  0  0  0  0  0  0  0  0  0  0
   -3.3334    1.7564  -20.7947 C   0  0  0  0  0  0  0  0  0  0  0  0
   -4.0623    1.2826  -21.9076 C   0  0  0  0  0  0  0  0  0  0  0  0
   -5.1435    0.4524  -21.7305 C   0  0  0  0  0  0  0  0  0  0  0  0
   -5.5383    0.0340  -20.4275 C   0  0  0  0  0  0  0  0  0  0  0  0
   -7.2405   -2.5893  -21.8285 C   0  0  0  0  0  0  0  0  0  0  0  0
   -8.5324   -2.8480  -22.6127 C   0  0  2  0  0  0  0  0  0  0  0  0
   -8.3159   -3.8422  -23.7541 C   0  0  0  0  0  0  0  0  0  0  0  0
   -9.5309   -4.1351  -24.4677 N   0  0  0  0  0  0  0  0  0  0  0  0
   -9.5579   -4.9093  -25.6083 C   0  0  0  0  0  0  0  0  0  0  0  0
   -8.4025   -5.5343  -26.1056 C   0  0  0  0  0  0  0  0  0  0  0  0
   -8.4649   -6.3028  -27.2598 C   0  0  0  0  0  0  0  0  0  0  0  0
   -9.6604   -6.4745  -27.9450 C   0  0  0  0  0  0  0  0  0  0  0  0
  -10.8057   -5.8598  -27.4493 C   0  0  0  0  0  0  0  0  0  0  0  0
  -10.7679   -5.0884  -26.2993 C   0  0  0  0  0  0  0  0  0  0  0  0
  -10.5821   -1.3280  -23.0694 C   0  0  0  0  0  0  0  0  0  0  0  0
  -11.4750   -2.2743  -22.5531 C   0  0  0  0  0  0  0  0  0  0  0  0
  -12.8300   -1.9916  -22.4990 C   0  0  0  0  0  0  0  0  0  0  0  0
  -13.8797   -3.1209  -21.6886 Cl  0  0  0  0  0  0  0  0  0  0  0  0
  -13.3646   -0.8148  -23.0217 C   0  0  0  0  0  0  0  0  0  0  0  0
  -12.4988    0.0928  -23.5938 C   0  0  0  0  0  0  0  0  0  0  0  0
  -11.1311   -0.1662  -23.6297 C   0  0  0  0  0  0  0  0  0  0  0  0
  -10.2552    0.8662  -24.2576 C   0  0  0  0  0  0  0  0  0  0  0  0
  -10.6468    2.0050  -24.4760 O   0  0  0  0  0  0  0  0  0  0  0  0
   -7.3218    4.6721  -22.6505 H   0  0  0  0  0  0  0  0  0  0  0  0
   -5.9587    3.5532  -22.7455 H   0  0  0  0  0  0  0  0  0  0  0  0
   -7.1445    3.3870  -21.4216 H   0  0  0  0  0  0  0  0  0  0  0  0
   -8.3170    1.9865  -22.7480 H   0  0  0  0  0  0  0  0  0  0  0  0
   -8.7462    1.7986  -26.1372 H   0  0  0  0  0  0  0  0  0  0  0  0
   -7.3493    0.7938  -25.7815 H   0  0  0  0  0  0  0  0  0  0  0  0
   -8.7628   -1.5452  -25.1290 H   0  0  0  0  0  0  0  0  0  0  0  0
   -7.4032   -0.8425  -24.2265 H   0  0  0  0  0  0  0  0  0  0  0  0
   -7.7505   -1.7801  -18.5720 H   0  0  0  0  0  0  0  0  0  0  0  0
   -4.4936    0.3345  -17.1780 H   0  0  0  0  0  0  0  0  0  0  0  0
   -3.1191    1.7156  -18.6651 H   0  0  0  0  0  0  0  0  0  0  0  0
   -2.5076    2.4426  -20.9526 H   0  0  0  0  0  0  0  0  0  0  0  0
   -3.7878    1.6068  -22.9080 H   0  0  0  0  0  0  0  0  0  0  0  0
   -5.7072    0.1196  -22.5974 H   0  0  0  0  0  0  0  0  0  0  0  0
   -6.3750   -2.4986  -22.5092 H   0  0  0  0  0  0  0  0  0  0  0  0
   -7.0145   -3.3670  -21.0930 H   0  0  0  0  0  0  0  0  0  0  0  0
   -9.2382   -3.2878  -21.9012 H   0  0  0  0  0  0  0  0  0  0  0  0
   -7.5616   -3.4406  -24.4514 H   0  0  0  0  0  0  0  0  0  0  0  0
   -7.8882   -4.7790  -23.3593 H   0  0  0  0  0  0  0  0  0  0  0  0
  -10.4004   -3.7154  -24.1789 H   0  0  0  0  0  0  0  0  0  0  0  0
   -7.4555   -5.4187  -25.5838 H   0  0  0  0  0  0  0  0  0  0  0  0
   -7.5563   -6.7739  -27.6208 H   0  0  0  0  0  0  0  0  0  0  0  0
   -9.6977   -7.0796  -28.8446 H   0  0  0  0  0  0  0  0  0  0  0  0
  -11.7495   -5.9873  -27.9678 H   0  0  0  0  0  0  0  0  0  0  0  0
  -11.6797   -4.6196  -25.9310 H   0  0  0  0  0  0  0  0  0  0  0  0
  -11.1437   -3.2114  -22.1145 H   0  0  0  0  0  0  0  0  0  0  0  0
  -14.4295   -0.6225  -22.9498 H   0  0  0  0  0  0  0  0  0  0  0  0
  -12.8604    1.0336  -23.9935 H   0  0  0  0  0  0  0  0  0  0  0  0
  1  2  1  0
  2  3  1  0
  3  4  2  0
  3  5  1  0
  5  6  1  0
  6  7  1  0
  8  7  1  6
  8  9  1  0
  9 10  2  0
  9 11  1  0
 11 12  1  0
 12 13  2  0
 13 14  1  0
 14 15  2  0
 15 16  1  0
 16 17  2  0
 17 18  1  0
 18 19  2  0
 19 20  1  0
 20 21  2  0
 11 22  1  0
 22 23  1  0
 23 24  1  0
 24 25  1  0
 25 26  1  0
 26 27  2  0
 27 28  1  0
 28 29  2  0
 29 30  1  0
 30 31  2  0
  8 32  1  0
 32 33  2  0
 33 34  1  0
 34 35  1  0
 34 36  2  0
 36 37  1  0
 37 38  2  0
 38 39  1  0
 39 40  2  0
 39  6  1  0
 23  8  1  0
 31 26  1  0
 38 32  1  0
 21 12  1  0
 21 16  1  0
  1 41  1  0
  1 42  1  0
  1 43  1  0
  2 44  1  0
  5 45  1  0
  5 46  1  0
  7 47  1  0
  7 48  1  0
 13 49  1  0
 15 50  1  0
 17 51  1  0
 18 52  1  0
 19 53  1  0
 20 54  1  0
 22 55  1  0
 22 56  1  0
 23 57  1  1
 24 58  1  0
 24 59  1  0
 25 60  1  0
 27 61  1  0
 28 62  1  0
 29 63  1  0
 30 64  1  0
 31 65  1  0
 33 66  1  0
 36 67  1  0
 37 68  1  0
M  END
