
     RDKit          3D

 68 73  0  0  0  0  0  0  0  0999 V2000
    7.2889    4.6534   22.3762 C   0  0  0  0  0  0  0  0  0  0  0  0
    8.0960    3.7373   23.1545 N   0  0  0  0  0  0  0  0  0  0  0  0
    7.8419    3.5888   24.4714 C   0  0  0  0  0  0  0  0  0  0  0  0
    7.0675    4.3051   25.0927 O   0  0  0  0  0  0  0  0  0  0  0  0
    8.5574    2.4635   25.2248 C   0  0  0  0  0  0  0  0  0  0  0  0
    9.3871    1.5742   24.4543 N   0  0  0  0  0  0  0  0  0  0  0  0
    8.9322    0.2143   24.2280 C   0  0  0  0  0  0  0  0  0  0  0  0
    9.4952   -0.3492   22.8996 C   0  0  2  0  0  0  0  0  0  0  0  0
    8.8550    0.4549   21.7328 C   0  0  0  0  0  0  0  0  0  0  0  0
    9.1139    1.6064   21.4322 O   0  0  0  0  0  0  0  0  0  0  0  0
    7.9005   -0.3180   21.1148 N   0  0  0  0  0  0  0  0  0  0  0  0
    7.0125    0.1696   20.1062 C   0  0  0  0  0  0  0  0  0  0  0  0
    7.2187   -0.1958   18.7977 C   0  0  0  0  0  0  0  0  0  0  0  0
    6.4159    0.1510   17.7595 N   0  0  0  0  0  0  0  0  0  0  0  0
    5.3753    0.9025   18.0187 C   0  0  0  0  0  0  0  0  0  0  0  0
    5.0457    1.3738   19.3208 C   0  0  0  0  0  0  0  0  0  0  0  0
    3.9411    2.2404   19.5381 C   0  0  0  0  0  0  0  0  0  0  0  0
    3.6220    2.6498   20.8003 C   0  0  0  0  0  0  0  0  0  0  0  0
    4.3880    2.2145   21.9040 C   0  0  0  0  0  0  0  0  0  0  0  0
    5.4879    1.4118   21.7159 C   0  0  0  0  0  0  0  0  0  0  0  0
    5.8659    0.9834   20.4112 C   0  0  0  0  0  0  0  0  0  0  0  0
    7.6710   -1.5687   21.8149 C   0  0  0  0  0  0  0  0  0  0  0  0
    8.9865   -1.7787   22.5741 C   0  0  2  0  0  0  0  0  0  0  0  0
    8.8228   -2.7599   23.7355 C   0  0  0  0  0  0  0  0  0  0  0  0
   10.0608   -3.0074   24.4264 N   0  0  0  0  0  0  0  0  0  0  0  0
   10.1343   -3.7619   25.5781 C   0  0  0  0  0  0  0  0  0  0  0  0
    9.0080   -4.4105   26.1106 C   0  0  0  0  0  0  0  0  0  0  0  0
    9.1170   -5.1581   27.2750 C   0  0  0  0  0  0  0  0  0  0  0  0
   10.3315   -5.2855   27.9361 C   0  0  0  0  0  0  0  0  0  0  0  0
   11.4481   -4.6474   27.4055 C   0  0  0  0  0  0  0  0  0  0  0  0
   11.3636   -3.8962   26.2447 C   0  0  0  0  0  0  0  0  0  0  0  0
   11.0022   -0.1953   22.9614 C   0  0  0  0  0  0  0  0  0  0  0  0
   11.9098   -1.1248   22.4402 C   0  0  0  0  0  0  0  0  0  0  0  0
   13.2549   -0.8056   22.3516 C   0  0  0  0  0  0  0  0  0  0  0  0
   14.3179   -1.9184   21.5359 Cl  0  0  0  0  0  0  0  0  0  0  0  0
   13.7675    0.3939   22.8439 C   0  0  0  0  0  0  0  0  0  0  0  0
   12.8892    1.2864   23.4208 C   0  0  0  0  0  0  0  0  0  0  0  0
   11.5304    0.9902   23.4911 C   0  0  0  0  0  0  0  0  0  0  0  0
   10.6398    2.0080   24.1221 C   0  0  0  0  0  0  0  0  0  0  0  0
   11.0040    3.1606   24.3139 O   0  0  0  0  0  0  0  0  0  0  0  0
    7.5666    5.7046   22.5213 H   0  0  0  0  0  0  0  0  0  0  0  0
    6.2378    4.5501   22.6640 H   0  0  0  0  0  0  0  0  0  0  0  0
    7.3987    4.3953   21.3168 H   0  0  0  0  0  0  0  0  0  0  0  0
    8.6386    3.0495   22.6386 H   0  0  0  0  0  0  0  0  0  0  0  0
    9.1465    2.9287   26.0200 H   0  0  0  0  0  0  0  0  0  0  0  0
    7.7710    1.8799   25.7111 H   0  0  0  0  0  0  0  0  0  0  0  0
    9.2350   -0.4293   25.0640 H   0  0  0  0  0  0  0  0  0  0  0  0
    7.8369    0.2207   24.1811 H   0  0  0  0  0  0  0  0  0  0  0  0
    8.0871   -0.7986   18.5356 H   0  0  0  0  0  0  0  0  0  0  0  0
    4.7426    1.2020   17.1814 H   0  0  0  0  0  0  0  0  0  0  0  0
    3.3627    2.5685   18.6769 H   0  0  0  0  0  0  0  0  0  0  0  0
    2.7809    3.3154   20.9658 H   0  0  0  0  0  0  0  0  0  0  0  0
    4.1263    2.5472   22.9051 H   0  0  0  0  0  0  0  0  0  0  0  0
    6.0795    1.1089   22.5752 H   0  0  0  0  0  0  0  0  0  0  0  0
    6.8184   -1.4909   22.5131 H   0  0  0  0  0  0  0  0  0  0  0  0
    7.4510   -2.3642   21.0968 H   0  0  0  0  0  0  0  0  0  0  0  0
    9.6887   -2.2103   21.8541 H   0  0  0  0  0  0  0  0  0  0  0  0
    8.0729   -2.3680   24.4430 H   0  0  0  0  0  0  0  0  0  0  0  0
    8.4131   -3.7144   23.3649 H   0  0  0  0  0  0  0  0  0  0  0  0
   10.9117   -2.5685   24.1118 H   0  0  0  0  0  0  0  0  0  0  0  0
    8.0470   -4.3296   25.6082 H   0  0  0  0  0  0  0  0  0  0  0  0
    8.2301   -5.6483   27.6634 H   0  0  0  0  0  0  0  0  0  0  0  0
   10.4053   -5.8746   28.8440 H   0  0  0  0  0  0  0  0  0  0  0  0
   12.4061   -4.7403   27.9049 H   0  0  0  0  0  0  0  0  0  0  0  0
   12.2537   -3.4083   25.8490 H   0  0  0  0  0  0  0  0  0  0  0  0
   11.5955   -2.0777   22.0238 H   0  0  0  0  0  0  0  0  0  0  0  0
   14.8248    0.6144   22.7453 H   0  0  0  0  0  0  0  0  0  0  0  0
   13.2329    2.2432   23.7976 H   0  0  0  0  0  0  0  0  0  0  0  0
  1  2  1  0
  2  3  1  0
  3  4  2  0
  3  5  1  0
  5  6  1  0
  6  7  1  0
  8  7  1  1
  8  9  1  0
  9 10  2  0
  9 11  1  0
 11 12  1  0
 12 13  2  0
 13 14  1  0
 14 15  2  0
 15 16  1  0
 16 17  2  0
 17 18  1  0
 18 19  2  0
 19 20  1  0
 20 21  2  0
 11 22  1  0
 22 23  1  0
 23 24  1  0
 24 25  1  0
 25 26  1  0
 26 27  2  0
 27 28  1  0
 28 29  2  0
 29 30  1  0
 30 31  2  0
  8 32  1  0
 32 33  2  0
 33 34  1  0
 34 35  1  0
 34 36  2  0
 36 37  1  0
 37 38  2  0
 38 39  1  0
 39 40  2  0
 39  6  1  0
 23  8  1  0
 31 26  1  0
 38 32  1  0
 21 12  1  0
 21 16  1  0
  1 41  1  0
  1 42  1  0
  1 43  1  0
  2 44  1  0
  5 45  1  0
  5 46  1  0
  7 47  1  0
  7 48  1  0
 13 49  1  0
 15 50  1  0
 17 51  1  0
 18 52  1  0
 19 53  1  0
 20 54  1  0
 22 55  1  0
 22 56  1  0
 23 57  1  6
 24 58  1  0
 24 59  1  0
 25 60  1  0
 27 61  1  0
 28 62  1  0
 29 63  1  0
 30 64  1  0
 31 65  1  0
 33 66  1  0
 36 67  1  0
 37 68  1  0
M  END
$$$$
