
     RDKit          3D

 58 63  0  0  0  0  0  0  0  0999 V2000
   -4.7312    4.5315  -23.2356 C   0  0  0  0  0  0  0  0  0  0  0  0
   -5.9105    3.6534  -23.5443 C   0  0  0  0  0  0  0  0  0  0  0  0
   -6.0727    2.7785  -24.6585 C   0  0  0  0  0  0  0  0  0  0  0  0
   -7.3030    2.2270  -24.4602 C   0  0  0  0  0  0  0  0  0  0  0  0
   -8.1467    1.3313  -25.3258 C   0  0  0  0  0  0  0  0  0  0  0  0
   -8.9901    0.4317  -24.5799 N   0  0  0  0  0  0  0  0  0  0  0  0
   -8.5020   -0.9031  -24.2809 C   0  0  0  0  0  0  0  0  0  0  0  0
   -9.0717   -1.4303  -22.9340 C   0  0  2  0  0  0  0  0  0  0  0  0
   -8.4777   -0.5786  -21.7728 C   0  0  0  0  0  0  0  0  0  0  0  0
   -8.7713    0.5512  -21.4748 O   0  0  0  0  0  0  0  0  0  0  0  0
   -7.4933   -1.3231  -21.1465 N   0  0  0  0  0  0  0  0  0  0  0  0
   -6.6453   -0.8042  -20.1305 C   0  0  0  0  0  0  0  0  0  0  0  0
   -6.8584   -1.1778  -18.8239 C   0  0  0  0  0  0  0  0  0  0  0  0
   -6.0698   -0.8202  -17.7820 N   0  0  0  0  0  0  0  0  0  0  0  0
   -5.0444   -0.0451  -18.0409 C   0  0  0  0  0  0  0  0  0  0  0  0
   -4.7250    0.4439  -19.3388 C   0  0  0  0  0  0  0  0  0  0  0  0
   -3.6541    1.3539  -19.5392 C   0  0  0  0  0  0  0  0  0  0  0  0
   -3.3516    1.7854  -20.8008 C   0  0  0  0  0  0  0  0  0  0  0  0
   -4.0873    1.3260  -21.9156 C   0  0  0  0  0  0  0  0  0  0  0  0
   -5.1572    0.4814  -21.7413 C   0  0  0  0  0  0  0  0  0  0  0  0
   -5.5216    0.0374  -20.4350 C   0  0  0  0  0  0  0  0  0  0  0  0
   -7.2142   -2.5753  -21.8209 C   0  0  0  0  0  0  0  0  0  0  0  0
   -8.5337   -2.8355  -22.5587 C   0  0  2  0  0  0  0  0  0  0  0  0
   -8.4285   -3.8413  -23.6953 C   0  0  0  0  0  0  0  0  0  0  0  0
  -10.5844   -1.3212  -23.0487 C   0  0  0  0  0  0  0  0  0  0  0  0
  -11.4869   -2.3000  -22.6069 C   0  0  0  0  0  0  0  0  0  0  0  0
  -12.8395   -2.0097  -22.6022 C   0  0  0  0  0  0  0  0  0  0  0  0
  -13.6926   -2.9226  -22.1077 F   0  0  0  0  0  0  0  0  0  0  0  0
  -13.3735   -0.8133  -23.0646 C   0  0  0  0  0  0  0  0  0  0  0  0
  -12.4932    0.1155  -23.5734 C   0  0  0  0  0  0  0  0  0  0  0  0
  -11.1244   -0.1497  -23.5979 C   0  0  0  0  0  0  0  0  0  0  0  0
  -10.2406    0.8664  -24.2435 C   0  0  0  0  0  0  0  0  0  0  0  0
  -10.6203    2.0100  -24.4583 O   0  0  0  0  0  0  0  0  0  0  0  0
   -7.8310    2.6986  -23.3274 O   0  0  0  0  0  0  0  0  0  0  0  0
   -6.9618    3.6013  -22.7536 N   0  0  0  0  0  0  0  0  0  0  0  0
   -4.5538    4.5482  -22.1546 H   0  0  0  0  0  0  0  0  0  0  0  0
   -4.8724    5.5653  -23.5752 H   0  0  0  0  0  0  0  0  0  0  0  0
   -3.8312    4.1511  -23.7307 H   0  0  0  0  0  0  0  0  0  0  0  0
   -5.3764    2.5865  -25.4650 H   0  0  0  0  0  0  0  0  0  0  0  0
   -7.5052    0.7495  -25.9932 H   0  0  0  0  0  0  0  0  0  0  0  0
   -8.7958    1.9452  -25.9599 H   0  0  0  0  0  0  0  0  0  0  0  0
   -8.7847   -1.5943  -25.0862 H   0  0  0  0  0  0  0  0  0  0  0  0
   -7.4079   -0.8614  -24.2388 H   0  0  0  0  0  0  0  0  0  0  0  0
   -7.7109   -1.8104  -18.5781 H   0  0  0  0  0  0  0  0  0  0  0  0
   -4.4014    0.2428  -17.2106 H   0  0  0  0  0  0  0  0  0  0  0  0
   -3.0909    1.6890  -18.6719 H   0  0  0  0  0  0  0  0  0  0  0  0
   -2.5382    2.4881  -20.9490 H   0  0  0  0  0  0  0  0  0  0  0  0
   -3.8159    1.6556  -22.9163 H   0  0  0  0  0  0  0  0  0  0  0  0
   -5.7300    0.1522  -22.6028 H   0  0  0  0  0  0  0  0  0  0  0  0
   -6.3559   -2.4923  -22.5160 H   0  0  0  0  0  0  0  0  0  0  0  0
   -6.9805   -3.3438  -21.0783 H   0  0  0  0  0  0  0  0  0  0  0  0
   -9.2098   -3.2276  -21.7884 H   0  0  0  0  0  0  0  0  0  0  0  0
   -9.3863   -3.9280  -24.2176 H   0  0  0  0  0  0  0  0  0  0  0  0
   -7.6784   -3.5237  -24.4280 H   0  0  0  0  0  0  0  0  0  0  0  0
   -8.1403   -4.8354  -23.3353 H   0  0  0  0  0  0  0  0  0  0  0  0
  -11.1808   -3.2822  -22.2607 H   0  0  0  0  0  0  0  0  0  0  0  0
  -14.4462   -0.6467  -23.0301 H   0  0  0  0  0  0  0  0  0  0  0  0
  -12.8366    1.0694  -23.9547 H   0  0  0  0  0  0  0  0  0  0  0  0
  1  2  1  0
  2  3  1  0
  3  4  2  0
  4  5  1  0
  5  6  1  0
  6  7  1  0
  8  7  1  6
  8  9  1  0
  9 10  2  0
  9 11  1  0
 11 12  1  0
 12 13  2  0
 13 14  1  0
 14 15  2  0
 15 16  1  0
 16 17  2  0
 17 18  1  0
 18 19  2  0
 19 20  1  0
 20 21  2  0
 11 22  1  0
 22 23  1  0
 23 24  1  0
  8 25  1  0
 25 26  2  0
 26 27  1  0
 27 28  1  0
 27 29  2  0
 29 30  1  0
 30 31  2  0
 31 32  1  0
 32 33  2  0
  4 34  1  0
 34 35  1  0
 35  2  2  0
 32  6  1  0
 23  8  1  0
 31 25  1  0
 21 12  1  0
 21 16  1  0
  1 36  1  0
  1 37  1  0
  1 38  1  0
  3 39  1  0
  5 40  1  0
  5 41  1  0
  7 42  1  0
  7 43  1  0
 13 44  1  0
 15 45  1  0
 17 46  1  0
 18 47  1  0
 19 48  1  0
 20 49  1  0
 22 50  1  0
 22 51  1  0
 23 52  1  1
 24 53  1  0
 24 54  1  0
 24 55  1  0
 26 56  1  0
 29 57  1  0
 30 58  1  0
M  END
