
     RDKit          3D

 50 53  0  0  0  0  0  0  0  0999 V2000
    5.1320    0.3997   29.9644 C   0  0  0  0  0  0  0  0  0  0  0  0
    5.0263   -0.3165   28.6214 C   0  0  1  0  0  0  0  0  0  0  0  0
    4.8425    0.6704   27.4680 C   0  0  0  0  0  0  0  0  0  0  0  0
    4.7814   -0.0263   26.1050 C   0  0  0  0  0  0  0  0  0  0  0  0
    5.9697   -0.9750   25.8235 C   0  0  2  0  0  0  0  0  0  0  0  0
    7.2605   -0.1829   25.5235 C   0  0  0  0  0  0  0  0  0  0  0  0
    7.2844    0.0599   24.0100 C   0  0  0  0  0  0  0  0  0  0  0  0
    6.4213   -0.9816   23.4696 N   0  0  0  0  0  0  0  0  0  0  0  0
    6.2856   -1.3349   22.1549 C   0  0  0  0  0  0  0  0  0  0  0  0
    5.7266   -2.3662   21.8253 O   0  0  0  0  0  0  0  0  0  0  0  0
    6.8394   -0.3736   21.0818 C   0  0  0  0  0  0  0  0  0  0  0  0
    5.8577   -0.1892   19.9531 C   0  0  0  0  0  0  0  0  0  0  0  0
    6.0377   -0.8147   18.7491 C   0  0  0  0  0  0  0  0  0  0  0  0
    5.2310   -0.6795   17.6631 N   0  0  0  0  0  0  0  0  0  0  0  0
    4.1706    0.0765   17.8024 C   0  0  0  0  0  0  0  0  0  0  0  0
    3.8192    0.7319   19.0142 C   0  0  0  0  0  0  0  0  0  0  0  0
    2.6265    1.4845   19.1478 C   0  0  0  0  0  0  0  0  0  0  0  0
    2.3020    2.0933   20.3271 C   0  0  0  0  0  0  0  0  0  0  0  0
    3.1828    2.0022   21.4264 C   0  0  0  0  0  0  0  0  0  0  0  0
    4.3508    1.2895   21.3237 C   0  0  0  0  0  0  0  0  0  0  0  0
    4.6937    0.6162   20.1197 C   0  0  0  0  0  0  0  0  0  0  0  0
    5.7495   -1.7545   24.5093 C   0  0  0  0  0  0  0  0  0  0  0  0
    6.1366   -1.9320   27.0182 C   0  0  0  0  0  0  0  0  0  0  0  0
    6.2356   -1.2095   28.3595 C   0  0  0  0  0  0  0  0  0  0  0  0
    4.2478    1.0184   30.1569 H   0  0  0  0  0  0  0  0  0  0  0  0
    5.2373   -0.3130   30.7908 H   0  0  0  0  0  0  0  0  0  0  0  0
    6.0085    1.0590   29.9841 H   0  0  0  0  0  0  0  0  0  0  0  0
    4.1431   -0.9674   28.6452 H   0  0  0  0  0  0  0  0  0  0  0  0
    5.6606    1.4034   27.4828 H   0  0  0  0  0  0  0  0  0  0  0  0
    3.9250    1.2516   27.6297 H   0  0  0  0  0  0  0  0  0  0  0  0
    4.7082    0.7173   25.3026 H   0  0  0  0  0  0  0  0  0  0  0  0
    3.8532   -0.6125   26.0680 H   0  0  0  0  0  0  0  0  0  0  0  0
    7.3077    0.7582   26.0715 H   0  0  0  0  0  0  0  0  0  0  0  0
    8.1318   -0.7659   25.8353 H   0  0  0  0  0  0  0  0  0  0  0  0
    8.2990   -0.0244   23.6097 H   0  0  0  0  0  0  0  0  0  0  0  0
    6.9090    1.0602   23.7567 H   0  0  0  0  0  0  0  0  0  0  0  0
    7.7479   -0.8328   20.6698 H   0  0  0  0  0  0  0  0  0  0  0  0
    7.1322    0.6009   21.4929 H   0  0  0  0  0  0  0  0  0  0  0  0
    6.8867   -1.4810   18.5948 H   0  0  0  0  0  0  0  0  0  0  0  0
    3.5137    0.1833   16.9340 H   0  0  0  0  0  0  0  0  0  0  0  0
    1.9866    1.5994   18.2827 H   0  0  0  0  0  0  0  0  0  0  0  0
    1.3701    2.6478   20.4220 H   0  0  0  0  0  0  0  0  0  0  0  0
    2.9327    2.5131   22.3515 H   0  0  0  0  0  0  0  0  0  0  0  0
    5.0226    1.2513   22.1762 H   0  0  0  0  0  0  0  0  0  0  0  0
    4.6887   -1.8694   24.2700 H   0  0  0  0  0  0  0  0  0  0  0  0
    6.1636   -2.7688   24.5650 H   0  0  0  0  0  0  0  0  0  0  0  0
    7.0277   -2.5540   26.8664 H   0  0  0  0  0  0  0  0  0  0  0  0
    5.2831   -2.6220   27.0527 H   0  0  0  0  0  0  0  0  0  0  0  0
    7.1295   -0.5815   28.3462 H   0  0  0  0  0  0  0  0  0  0  0  0
    6.3605   -1.9278   29.1821 H   0  0  0  0  0  0  0  0  0  0  0  0
  1  2  1  0
  2  3  1  0
  3  4  1  0
  5  4  1  1
  5  6  1  0
  6  7  1  0
  7  8  1  0
  8  9  1  0
  9 10  2  0
  9 11  1  0
 11 12  1  0
 12 13  2  0
 13 14  1  0
 14 15  2  0
 15 16  1  0
 16 17  2  0
 17 18  1  0
 18 19  2  0
 19 20  1  0
 20 21  2  0
  8 22  1  0
  5 23  1  0
 23 24  1  0
 24  2  1  0
 22  5  1  0
 21 12  1  0
 21 16  1  0
  1 25  1  0
  1 26  1  0
  1 27  1  0
  2 28  1  1
  3 29  1  0
  3 30  1  0
  4 31  1  0
  4 32  1  0
  6 33  1  0
  6 34  1  0
  7 35  1  0
  7 36  1  0
 11 37  1  0
 11 38  1  0
 13 39  1  0
 15 40  1  0
 17 41  1  0
 18 42  1  0
 19 43  1  0
 20 44  1  0
 22 45  1  0
 22 46  1  0
 23 47  1  0
 23 48  1  0
 24 49  1  0
 24 50  1  0
M  END
$$$$
