
     RDKit          3D

 40 42  0  0  0  0  0  0  0  0999 V2000
    8.9712    0.1536   20.8072 O   0  0  0  0  0  0  0  0  0  0  0  0
    8.3630   -0.8895   20.9930 C   0  0  0  0  0  0  0  0  0  0  0  0
    7.0706   -1.2263   20.2401 C   0  0  0  0  0  0  0  0  0  0  0  0
    6.4438   -0.1788   19.3269 C   0  0  0  0  0  0  0  0  0  0  0  0
    6.6550   -0.1942   17.9405 C   0  0  0  0  0  0  0  0  0  0  0  0
    5.9408    0.5371   17.0652 N   0  0  0  0  0  0  0  0  0  0  0  0
    4.9575    1.3079   17.5497 C   0  0  0  0  0  0  0  0  0  0  0  0
    4.7003    1.4370   18.9164 C   0  0  0  0  0  0  0  0  0  0  0  0
    3.6743    2.2763   19.3774 C   0  0  0  0  0  0  0  0  0  0  0  0
    3.4635    2.4261   20.7454 C   0  0  0  0  0  0  0  0  0  0  0  0
    4.2867    1.7537   21.6519 C   0  0  0  0  0  0  0  0  0  0  0  0
    5.2899    0.8877   21.2006 C   0  0  0  0  0  0  0  0  0  0  0  0
    5.4919    0.7107   19.8253 C   0  0  0  0  0  0  0  0  0  0  0  0
    8.8021   -1.8014   21.9419 N   0  0  0  0  0  0  0  0  0  0  0  0
   10.2375   -1.9173   22.2041 C   0  0  0  0  0  0  0  0  0  0  0  0
   10.6995   -0.7033   23.0074 C   0  0  0  0  0  0  0  0  0  0  0  0
    9.9353   -0.6806   24.3444 C   0  0  0  0  0  0  0  0  0  0  0  0
   10.4236    0.4581   25.2594 C   0  0  0  0  0  0  0  0  0  0  0  0
    9.6843    0.4593   26.4029 F   0  0  0  0  0  0  0  0  0  0  0  0
   10.2840    1.6446   24.6062 F   0  0  0  0  0  0  0  0  0  0  0  0
   11.7348    0.2644   25.5869 F   0  0  0  0  0  0  0  0  0  0  0  0
    8.4269   -0.5736   24.0078 C   0  0  0  0  0  0  0  0  0  0  0  0
    7.9766   -1.7679   23.1478 C   0  0  0  0  0  0  0  0  0  0  0  0
    7.2407   -2.1361   19.6644 H   0  0  0  0  0  0  0  0  0  0  0  0
    6.3257   -1.4877   20.9912 H   0  0  0  0  0  0  0  0  0  0  0  0
    7.4344   -0.8456   17.5759 H   0  0  0  0  0  0  0  0  0  0  0  0
    4.3273    1.8690   16.8650 H   0  0  0  0  0  0  0  0  0  0  0  0
    3.0410    2.8205   18.6832 H   0  0  0  0  0  0  0  0  0  0  0  0
    2.6774    3.0807   21.1117 H   0  0  0  0  0  0  0  0  0  0  0  0
    4.1545    1.9280   22.7097 H   0  0  0  0  0  0  0  0  0  0  0  0
    5.9409    0.3983   21.9196 H   0  0  0  0  0  0  0  0  0  0  0  0
   10.7978   -2.0040   21.2689 H   0  0  0  0  0  0  0  0  0  0  0  0
   10.4340   -2.8283   22.7793 H   0  0  0  0  0  0  0  0  0  0  0  0
   11.7784   -0.7456   23.1842 H   0  0  0  0  0  0  0  0  0  0  0  0
   10.4908    0.2086   22.4375 H   0  0  0  0  0  0  0  0  0  0  0  0
   10.1147   -1.6263   24.8714 H   0  0  0  0  0  0  0  0  0  0  0  0
    7.8338   -0.5304   24.9264 H   0  0  0  0  0  0  0  0  0  0  0  0
    8.2430    0.3486   23.4410 H   0  0  0  0  0  0  0  0  0  0  0  0
    6.9170   -1.6531   22.8883 H   0  0  0  0  0  0  0  0  0  0  0  0
    8.0801   -2.7006   23.7094 H   0  0  0  0  0  0  0  0  0  0  0  0
  1  2  2  0
  2  3  1  0
  3  4  1  0
  4  5  2  0
  5  6  1  0
  6  7  2  0
  7  8  1  0
  8  9  2  0
  9 10  1  0
 10 11  2  0
 11 12  1  0
 12 13  2  0
  2 14  1  0
 14 15  1  0
 15 16  1  0
 16 17  1  0
 17 18  1  0
 18 19  1  0
 18 20  1  0
 18 21  1  0
 17 22  1  0
 22 23  1  0
 13  4  1  0
 23 14  1  0
 13  8  1  0
  3 24  1  0
  3 25  1  0
  5 26  1  0
  7 27  1  0
  9 28  1  0
 10 29  1  0
 11 30  1  0
 12 31  1  0
 15 32  1  0
 15 33  1  0
 16 34  1  0
 16 35  1  0
 17 36  1  0
 22 37  1  0
 22 38  1  0
 23 39  1  0
 23 40  1  0
M  END
$$$$
