
     RDKit          3D

 27 31  0  0  0  0  0  0  0  0999 V2000
    7.4965    1.9536   20.5106 O   0  0  0  0  0  0  0  0  0  0  0  0
    7.6136    0.9140   21.1159 C   0  0  0  0  0  0  0  0  0  0  0  0
    8.4970    0.5578   22.0886 N   0  0  0  0  0  0  0  0  0  0  0  0
    8.3993   -0.8435   22.4513 C   0  0  2  0  0  0  0  0  0  0  0  0
    8.6506   -1.0842   23.9405 C   0  0  0  0  0  0  0  0  0  0  0  0
   10.1537   -1.0879   23.5885 C   0  0  1  0  0  0  0  0  0  0  0  0
   11.1893   -1.7680   24.4286 C   0  0  0  0  0  0  0  0  0  0  0  0
   10.9557   -2.2546   25.7155 C   0  0  0  0  0  0  0  0  0  0  0  0
   11.9957   -2.7282   26.5035 C   0  0  0  0  0  0  0  0  0  0  0  0
   13.3005   -2.7333   26.0272 C   0  0  0  0  0  0  0  0  0  0  0  0
   13.5517   -2.2769   24.7427 C   0  0  0  0  0  0  0  0  0  0  0  0
   12.5088   -1.8008   23.9653 C   0  0  0  0  0  0  0  0  0  0  0  0
   12.9168   -1.1779   22.3830 Cl  0  0  0  0  0  0  0  0  0  0  0  0
    9.7146   -1.6066   22.1969 C   0  0  0  0  0  0  0  0  0  0  0  0
    7.1653   -1.3001   21.7009 C   0  0  0  0  0  0  0  0  0  0  0  0
    6.5817   -2.3573   21.7353 O   0  0  0  0  0  0  0  0  0  0  0  0
    6.8281   -0.2185   20.8977 N   0  0  0  0  0  0  0  0  0  0  0  0
    5.8299   -0.1831   19.9151 C   0  0  0  0  0  0  0  0  0  0  0  0
    6.0235   -0.8419   18.7322 C   0  0  0  0  0  0  0  0  0  0  0  0
    5.2255   -0.7005   17.6524 N   0  0  0  0  0  0  0  0  0  0  0  0
    4.1709    0.0690   17.7988 C   0  0  0  0  0  0  0  0  0  0  0  0
    3.8114    0.7228   19.0159 C   0  0  0  0  0  0  0  0  0  0  0  0
    2.6254    1.4863   19.1393 C   0  0  0  0  0  0  0  0  0  0  0  0
    2.2943    2.0767   20.3276 C   0  0  0  0  0  0  0  0  0  0  0  0
    3.1855    2.0125   21.4245 C   0  0  0  0  0  0  0  0  0  0  0  0
    4.3590    1.3110   21.3315 C   0  0  0  0  0  0  0  0  0  0  0  0
    4.6752    0.6142   20.1234 C   0  0  0  0  0  0  0  0  0  0  0  0
  1  2  2  0
  2  3  1  0
  4  3  1  0
  4  5  1  1
  5  6  1  0
  6  7  1  1
  7  8  2  0
  8  9  1  0
  9 10  2  0
 10 11  1  0
 11 12  2  0
 12 13  1  0
  6 14  1  0
  4 15  1  0
 15 16  2  0
 15 17  1  0
 17 18  1  0
 18 19  2  0
 19 20  1  0
 20 21  2  0
 21 22  1  0
 22 23  2  0
 23 24  1  0
 24 25  2  0
 25 26  1  0
 26 27  2  0
 17  2  1  0
 27 18  1  0
 14  4  1  0
 27 22  1  0
 12  7  1  0
M  END
$$$$
