mobile
  PyMOL3.1          3D                             0

 43 47  0  0  0  0  0  0  0  0999 V2000
   10.0852   -1.9373   24.1484 C   0  0  0  0  0  0  0  0  0  0  0  0
    4.0165    0.5466   19.3298 C   0  0  0  0  0  0  0  0  0  0  0  0
   11.4636   -1.2398   24.2265 C   0  0  0  0  0  0  0  0  0  0  0  0
   12.6626   -1.9762   23.6055 C   0  0  0  0  0  0  0  0  0  0  0  0
    5.7884   -0.7848   20.3348 C   0  0  0  0  0  0  0  0  0  0  0  0
   13.0735   -2.4133   25.0178 C   0  0  0  0  0  0  0  0  0  0  0  0
   12.1911   -1.2834   25.5727 C   0  0  0  0  0  0  0  0  0  0  0  0
    9.6574   -2.4513   22.7580 C   0  0  0  0  0  0  0  0  0  0  0  0
    7.7699   -0.9687   21.8478 C   0  0  0  0  0  0  0  0  0  0  0  0
    6.2687   -1.0473   19.0534 C   0  0  0  0  0  0  0  0  0  0  0  0
    4.6079    0.1954   18.0916 C   0  0  0  0  0  0  0  0  0  0  0  0
    7.1128   -2.7148   23.0940 N   0  0  0  0  0  0  0  0  0  0  0  0
    6.4680   -1.3161   21.4850 N   0  0  0  0  0  0  0  0  0  0  0  0
    8.7999   -1.0878   24.2188 C   0  0  0  0  0  0  0  0  0  0  0  0
    5.6757   -0.5658   17.9557 N   0  0  0  0  0  0  0  0  0  0  0  0
    5.1822   -3.1966   21.9268 O   0  0  0  0  0  0  0  0  0  0  0  0
    6.1457   -2.4982   22.1570 C   0  0  0  0  0  0  0  0  0  0  0  0
    8.2546   -1.8287   22.9691 C   0  0  0  0  0  0  0  0  0  0  0  0
    8.4100   -0.0766   21.3230 O   0  0  0  0  0  0  0  0  0  0  0  0
    2.8682    1.3586   19.4413 C   0  0  0  0  0  0  0  0  0  0  0  0
    2.3554    1.6512   20.6707 C   0  0  0  0  0  0  0  0  0  0  0  0
    2.9593    1.1495   21.8377 C   0  0  0  0  0  0  0  0  0  0  0  0
    4.0774    0.3673   21.7613 C   0  0  0  0  0  0  0  0  0  0  0  0
    4.6322    0.0410   20.5031 C   0  0  0  0  0  0  0  0  0  0  0  0
   10.0366   -2.7545   24.8820 H   0  0  0  0  0  0  0  0  0  0  0  0
   11.3992   -0.2090   23.8482 H   0  0  0  0  0  0  0  0  0  0  0  0
   12.3908   -2.8035   22.9333 H   0  0  0  0  0  0  0  0  0  0  0  0
   13.3889   -1.3198   23.1037 H   0  0  0  0  0  0  0  0  0  0  0  0
   12.7447   -3.4264   25.2948 H   0  0  0  0  0  0  0  0  0  0  0  0
   14.1457   -2.3034   25.2356 H   0  0  0  0  0  0  0  0  0  0  0  0
   12.7368   -0.3628   25.8244 H   0  0  0  0  0  0  0  0  0  0  0  0
   11.5575   -1.5773   26.4225 H   0  0  0  0  0  0  0  0  0  0  0  0
   10.2230   -2.0127   21.9224 H   0  0  0  0  0  0  0  0  0  0  0  0
    9.6548   -3.5471   22.6637 H   0  0  0  0  0  0  0  0  0  0  0  0
    7.1511   -1.6604   18.9431 H   0  0  0  0  0  0  0  0  0  0  0  0
    4.1501    0.5800   17.1930 H   0  0  0  0  0  0  0  0  0  0  0  0
    7.0415   -3.4180   23.8011 H   0  0  0  0  0  0  0  0  0  0  0  0
    8.2058   -1.2447   25.1312 H   0  0  0  0  0  0  0  0  0  0  0  0
    8.9623   -0.0097   24.0688 H   0  0  0  0  0  0  0  0  0  0  0  0
    2.3951    1.7490   18.5532 H   0  0  0  0  0  0  0  0  0  0  0  0
    1.4770    2.2743   20.7491 H   0  0  0  0  0  0  0  0  0  0  0  0
    2.5350    1.3842   22.8026 H   0  0  0  0  0  0  0  0  0  0  0  0
    4.5379   -0.0022   22.6651 H   0  0  0  0  0  0  0  0  0  0  0  0
  1  3  1  0  0  0  0
  1  8  1  0  0  0  0
  1 14  1  0  0  0  0
  1 25  1  0  0  0  0
  2 11  4  0  0  0  0
  2 20  4  0  0  0  0
  2 24  4  0  0  0  0
  3  4  1  0  0  0  0
  3  7  1  0  0  0  0
  3 26  1  0  0  0  0
  4  6  1  0  0  0  0
  4 27  1  0  0  0  0
  4 28  1  0  0  0  0
  5 10  4  0  0  0  0
  5 13  1  0  0  0  0
  5 24  4  0  0  0  0
  6  7  1  0  0  0  0
  6 29  1  0  0  0  0
  6 30  1  0  0  0  0
  7 31  1  0  0  0  0
  7 32  1  0  0  0  0
  8 18  1  0  0  0  0
  8 33  1  0  0  0  0
  8 34  1  0  0  0  0
  9 13  1  0  0  0  0
  9 18  1  0  0  0  0
  9 19  2  0  0  0  0
 10 15  4  0  0  0  0
 10 35  1  0  0  0  0
 11 15  4  0  0  0  0
 11 36  1  0  0  0  0
 12 17  1  0  0  0  0
 12 18  1  0  0  0  0
 12 37  1  0  0  0  0
 13 17  1  0  0  0  0
 14 18  1  0  0  0  0
 14 38  1  0  0  0  0
 14 39  1  0  0  0  0
 16 17  2  0  0  0  0
 20 21  4  0  0  0  0
 20 40  1  0  0  0  0
 21 22  4  0  0  0  0
 21 41  1  0  0  0  0
 22 23  4  0  0  0  0
 22 42  1  0  0  0  0
 23 24  4  0  0  0  0
 23 43  1  0  0  0  0
M  END
$$$$
