
     RDKit          3D

 43 47  0  0  0  0  0  0  0  0999 V2000
    5.0600   -3.1075   22.1967 O   0  0  0  0  0  0  0  0  0  0  0  0
    6.0591   -2.4210   22.2713 C   0  0  0  0  0  0  0  0  0  0  0  0
    6.9921   -2.7059   23.2397 N   0  0  0  0  0  0  0  0  0  0  0  0
    8.2061   -1.9690   22.9655 C   0  0  2  0  0  0  0  0  0  0  0  0
    9.5114   -2.7595   22.8793 C   0  0  0  0  0  0  0  0  0  0  0  0
   10.0182   -2.0347   24.1340 C   0  0  1  0  0  0  0  0  0  0  0  0
   11.3356   -1.3054   23.9917 C   0  0  0  0  0  0  0  0  0  0  0  0
   11.3875    0.0497   24.3375 C   0  0  0  0  0  0  0  0  0  0  0  0
   12.5877    0.7579   24.2875 C   0  0  0  0  0  0  0  0  0  0  0  0
   13.7405    0.1307   23.8285 C   0  0  0  0  0  0  0  0  0  0  0  0
   13.7149   -1.2319   23.5101 C   0  0  0  0  0  0  0  0  0  0  0  0
   12.5135   -1.9538   23.5678 C   0  0  0  0  0  0  0  0  0  0  0  0
   12.5154   -3.6325   23.0753 Cl  0  0  0  0  0  0  0  0  0  0  0  0
    8.7299   -1.1752   24.1489 C   0  0  0  0  0  0  0  0  0  0  0  0
    7.7729   -1.1631   21.7394 C   0  0  0  0  0  0  0  0  0  0  0  0
    8.4850   -0.3258   21.2245 O   0  0  0  0  0  0  0  0  0  0  0  0
    6.4854   -1.4793   21.3559 N   0  0  0  0  0  0  0  0  0  0  0  0
    5.7652   -0.9687   20.2315 C   0  0  0  0  0  0  0  0  0  0  0  0
    6.1925   -1.1948   18.8967 C   0  0  0  0  0  0  0  0  0  0  0  0
    5.5945   -0.6855   17.7990 N   0  0  0  0  0  0  0  0  0  0  0  0
    4.5237    0.1068   18.0020 C   0  0  0  0  0  0  0  0  0  0  0  0
    4.0087    0.4012   19.2703 C   0  0  0  0  0  0  0  0  0  0  0  0
    2.9082    1.2645   19.4132 C   0  0  0  0  0  0  0  0  0  0  0  0
    2.4165    1.5731   20.6827 C   0  0  0  0  0  0  0  0  0  0  0  0
    3.0145    1.0201   21.8165 C   0  0  0  0  0  0  0  0  0  0  0  0
    4.1094    0.1574   21.6755 C   0  0  0  0  0  0  0  0  0  0  0  0
    4.6236   -0.1581   20.4076 C   0  0  0  0  0  0  0  0  0  0  0  0
    7.0246   -3.6724   23.5517 H   0  0  0  0  0  0  0  0  0  0  0  0
    9.3877   -3.8324   23.0205 H   0  0  0  0  0  0  0  0  0  0  0  0
   10.0998   -2.5868   21.9695 H   0  0  0  0  0  0  0  0  0  0  0  0
   10.0543   -2.6970   25.0068 H   0  0  0  0  0  0  0  0  0  0  0  0
   10.4823    0.5488   24.6655 H   0  0  0  0  0  0  0  0  0  0  0  0
   12.6256    1.7842   24.6373 H   0  0  0  0  0  0  0  0  0  0  0  0
   14.6453    0.7239   23.7205 H   0  0  0  0  0  0  0  0  0  0  0  0
   14.6202   -1.7290   23.1856 H   0  0  0  0  0  0  0  0  0  0  0  0
    8.8669   -0.1218   23.8932 H   0  0  0  0  0  0  0  0  0  0  0  0
    8.1131   -1.2278   25.0548 H   0  0  0  0  0  0  0  0  0  0  0  0
    7.0697   -1.8189   18.7542 H   0  0  0  0  0  0  0  0  0  0  0  0
    4.0403    0.5544   17.1415 H   0  0  0  0  0  0  0  0  0  0  0  0
    2.4362    1.6996   18.5374 H   0  0  0  0  0  0  0  0  0  0  0  0
    1.5838    2.2629   20.7812 H   0  0  0  0  0  0  0  0  0  0  0  0
    2.6343    1.2728   22.8025 H   0  0  0  0  0  0  0  0  0  0  0  0
    4.5686   -0.2621   22.5623 H   0  0  0  0  0  0  0  0  0  0  0  0
  1  2  2  0
  2  3  1  0
  4  3  1  1
  4  5  1  0
  5  6  1  0
  6  7  1  0
  7  8  2  0
  8  9  1  0
  9 10  2  0
 10 11  1  0
 11 12  2  0
 12 13  1  0
  6 14  1  0
  4 15  1  0
 15 16  2  0
 15 17  1  0
 17 18  1  0
 18 19  2  0
 19 20  1  0
 20 21  2  0
 21 22  1  0
 22 23  2  0
 23 24  1  0
 24 25  2  0
 25 26  1  0
 26 27  2  0
 17  2  1  0
 27 18  1  0
 14  4  1  0
 27 22  1  0
 12  7  1  0
  3 28  1  0
  5 29  1  0
  5 30  1  0
  6 31  1  1
  8 32  1  0
  9 33  1  0
 10 34  1  0
 11 35  1  0
 14 36  1  0
 14 37  1  0
 19 38  1  0
 21 39  1  0
 23 40  1  0
 24 41  1  0
 25 42  1  0
 26 43  1  0
M  END
