
     RDKit          3D

 43 47  0  0  0  0  0  0  0  0999 V2000
   -5.5967   -2.2966  -21.9871 O   0  0  0  0  0  0  0  0  0  0  0  0
   -6.6004   -1.6141  -22.0286 C   0  0  0  0  0  0  0  0  0  0  0  0
   -7.5620   -1.9002  -22.9682 N   0  0  0  0  0  0  0  0  0  0  0  0
   -8.7698   -1.1691  -22.6542 C   0  0  2  0  0  0  0  0  0  0  0  0
  -10.0686   -1.9652  -22.5295 C   0  0  0  0  0  0  0  0  0  0  0  0
  -10.6173   -1.2391  -23.7658 C   0  0  1  0  0  0  0  0  0  0  0  0
  -11.9325   -0.5156  -23.5804 C   0  0  0  0  0  0  0  0  0  0  0  0
  -12.0006    0.8401  -23.9207 C   0  0  0  0  0  0  0  0  0  0  0  0
  -13.2015    1.5433  -23.8313 C   0  0  0  0  0  0  0  0  0  0  0  0
  -14.3369    0.9101  -23.3383 C   0  0  0  0  0  0  0  0  0  0  0  0
  -14.2959   -0.4532  -23.0246 C   0  0  0  0  0  0  0  0  0  0  0  0
  -13.0940   -1.1700  -23.1218 C   0  0  0  0  0  0  0  0  0  0  0  0
  -13.0737   -2.8500  -22.6341 Cl  0  0  0  0  0  0  0  0  0  0  0  0
   -9.3335   -0.3743  -23.8185 C   0  0  0  0  0  0  0  0  0  0  0  0
   -8.3018   -0.3646  -21.4400 C   0  0  0  0  0  0  0  0  0  0  0  0
   -9.0009    0.4684  -20.9008 O   0  0  0  0  0  0  0  0  0  0  0  0
   -7.0017   -0.6766  -21.0978 N   0  0  0  0  0  0  0  0  0  0  0  0
   -6.2488   -0.1660  -19.9950 C   0  0  0  0  0  0  0  0  0  0  0  0
   -6.6334   -0.3974  -18.6481 C   0  0  0  0  0  0  0  0  0  0  0  0
   -6.0034    0.1115  -17.5682 N   0  0  0  0  0  0  0  0  0  0  0  0
   -4.9427    0.9087  -17.8023 C   0  0  0  0  0  0  0  0  0  0  0  0
   -4.4687    1.2086  -19.0853 C   0  0  0  0  0  0  0  0  0  0  0  0
   -3.3767    2.0768  -19.2600 C   0  0  0  0  0  0  0  0  0  0  0  0
   -2.9261    2.3908  -20.5434 C   0  0  0  0  0  0  0  0  0  0  0  0
   -3.5570    1.8383  -21.6595 C   0  0  0  0  0  0  0  0  0  0  0  0
   -4.6435    0.9708  -21.4868 C   0  0  0  0  0  0  0  0  0  0  0  0
   -5.1166    0.6498  -20.2044 C   0  0  0  0  0  0  0  0  0  0  0  0
   -7.6004   -2.8660  -23.2817 H   0  0  0  0  0  0  0  0  0  0  0  0
   -9.9451   -3.0372  -22.6775 H   0  0  0  0  0  0  0  0  0  0  0  0
  -10.6290   -1.7973  -21.6014 H   0  0  0  0  0  0  0  0  0  0  0  0
  -10.6779   -1.8993  -24.6389 H   0  0  0  0  0  0  0  0  0  0  0  0
  -11.1081    1.3438  -24.2754 H   0  0  0  0  0  0  0  0  0  0  0  0
  -13.2545    2.5703  -24.1769 H   0  0  0  0  0  0  0  0  0  0  0  0
  -15.2403    1.4993  -23.2005 H   0  0  0  0  0  0  0  0  0  0  0  0
  -15.1886   -0.9549  -22.6734 H   0  0  0  0  0  0  0  0  0  0  0  0
   -9.4667    0.6778  -23.5557 H   0  0  0  0  0  0  0  0  0  0  0  0
   -8.7451   -0.4220  -24.7434 H   0  0  0  0  0  0  0  0  0  0  0  0
   -7.5032   -1.0254  -18.4800 H   0  0  0  0  0  0  0  0  0  0  0  0
   -4.4345    1.3560  -16.9561 H   0  0  0  0  0  0  0  0  0  0  0  0
   -2.8794    2.5115  -18.3982 H   0  0  0  0  0  0  0  0  0  0  0  0
   -2.0997    3.0843  -20.6659 H   0  0  0  0  0  0  0  0  0  0  0  0
   -3.2088    2.0952  -22.6562 H   0  0  0  0  0  0  0  0  0  0  0  0
   -5.1284    0.5517  -22.3600 H   0  0  0  0  0  0  0  0  0  0  0  0
  1  2  2  0
  2  3  1  0
  4  3  1  1
  4  5  1  0
  5  6  1  0
  6  7  1  0
  7  8  2  0
  8  9  1  0
  9 10  2  0
 10 11  1  0
 11 12  2  0
 12 13  1  0
  6 14  1  0
  4 15  1  0
 15 16  2  0
 15 17  1  0
 17 18  1  0
 18 19  2  0
 19 20  1  0
 20 21  2  0
 21 22  1  0
 22 23  2  0
 23 24  1  0
 24 25  2  0
 25 26  1  0
 26 27  2  0
 17  2  1  0
 27 18  1  0
 14  4  1  0
 27 22  1  0
 12  7  1  0
  3 28  1  0
  5 29  1  0
  5 30  1  0
  6 31  1  1
  8 32  1  0
  9 33  1  0
 10 34  1  0
 11 35  1  0
 14 36  1  0
 14 37  1  0
 19 38  1  0
 21 39  1  0
 23 40  1  0
 24 41  1  0
 25 42  1  0
 26 43  1  0
M  END
$$$$
