LIG(B-302)
     RDKit          3D

 24 28  0  0  0  0  0  0  0  0999 V2000
  -10.6851   -1.1416  -23.7779 C   0  0  2  0  0  0  0  0  0  0  0  0
   -4.4791    1.3540  -19.1440 C   0  0  0  0  0  0  0  0  0  0  0  0
  -12.0681   -0.4503  -23.8109 C   0  0  0  0  0  0  0  0  0  0  0  0
  -13.2443   -1.1926  -23.1548 C   0  0  0  0  0  0  0  0  0  0  0  0
   -6.2764    0.0184  -20.0967 C   0  0  0  0  0  0  0  0  0  0  0  0
  -13.6969   -1.6284  -24.5549 C   0  0  0  0  0  0  0  0  0  0  0  0
  -12.8370   -0.4931  -25.1341 C   0  0  0  0  0  0  0  0  0  0  0  0
  -10.2120   -1.6577  -22.4027 C   0  0  0  0  0  0  0  0  0  0  0  0
   -8.3026   -0.1697  -21.5482 C   0  0  0  0  0  0  0  0  0  0  0  0
   -6.7150   -0.2498  -18.8017 C   0  0  0  0  0  0  0  0  0  0  0  0
   -5.0300    0.9972  -17.8894 C   0  0  0  0  0  0  0  0  0  0  0  0
   -7.6779   -1.9100  -22.8186 N   0  0  0  0  0  0  0  0  0  0  0  0
   -6.9887   -0.5126  -21.2270 N   0  0  0  0  0  0  0  0  0  0  0  0
   -9.4060   -0.2868  -23.8864 C   0  0  0  0  0  0  0  0  0  0  0  0
   -6.0899    0.2307  -17.7216 N   0  0  0  0  0  0  0  0  0  0  0  0
   -5.7101   -2.3866  -21.7141 O   0  0  0  0  0  0  0  0  0  0  0  0
   -6.6834   -1.6920  -21.9116 C   0  0  0  0  0  0  0  0  0  0  0  0
   -8.8194   -1.0292  -22.6557 C   0  0  1  0  0  0  0  0  0  0  0  0
   -8.9296    0.7179  -21.0009 O   0  0  0  0  0  0  0  0  0  0  0  0
   -3.3381    2.1712  -19.2895 C   0  0  0  0  0  0  0  0  0  0  0  0
   -2.8653    2.4690  -20.5334 C   0  0  0  0  0  0  0  0  0  0  0  0
   -3.5026    1.9680  -21.6816 C   0  0  0  0  0  0  0  0  0  0  0  0
   -4.6147    1.1810  -21.5729 C   0  0  0  0  0  0  0  0  0  0  0  0
   -5.1294    0.8490  -20.2992 C   0  0  0  0  0  0  0  0  0  0  0  0
  1  3  1  1
  1  8  1  0
  1 14  1  0
  2 11  1  0
  2 20  1  0
  2 24  2  0
  3  4  1  0
  3  7  1  0
  4  6  1  0
  5 10  2  0
  5 13  1  0
  5 24  1  0
  6  7  1  0
 18  8  1  1
  9 13  1  0
  9 18  1  0
  9 19  2  0
 10 15  1  0
 11 15  2  0
 12 17  1  0
 18 12  1  0
 13 17  1  0
 14 18  1  0
 16 17  2  0
 20 21  2  0
 21 22  1  0
 22 23  2  0
 23 24  1  0
M  END
$$$$
